                                  MODFLOW-2005     
      U.S. GEOLOGICAL SURVEY MODULAR FINITE-DIFFERENCE GROUND-WATER FLOW MODEL
                            VERSION 1.11.00 8/8/2013

 LIST FILE: tutorial02_mf.list
                         UNIT    2

 OPENING tutorial02_mf.dis
 FILE TYPE:DIS   UNIT   11   STATUS:OLD    
 FORMAT:FORMATTED              ACCESS:SEQUENTIAL          

 OPENING tutorial02_mf.bas
 FILE TYPE:BAS6   UNIT   13   STATUS:OLD    
 FORMAT:FORMATTED              ACCESS:SEQUENTIAL          

 OPENING tutorial02_mf.lpf
 FILE TYPE:LPF   UNIT   15   STATUS:OLD    
 FORMAT:FORMATTED              ACCESS:SEQUENTIAL          

 OPENING tutorial02_mf.pcg
 FILE TYPE:PCG   UNIT   27   STATUS:OLD    
 FORMAT:FORMATTED              ACCESS:SEQUENTIAL          

 OPENING tutorial02_mf.ghb
 FILE TYPE:GHB   UNIT   23   STATUS:OLD    
 FORMAT:FORMATTED              ACCESS:SEQUENTIAL          

 OPENING tutorial02_mf.wel
 FILE TYPE:WEL   UNIT   20   STATUS:OLD    
 FORMAT:FORMATTED              ACCESS:SEQUENTIAL          

 OPENING tutorial02_mf.oc
 FILE TYPE:OC   UNIT   14   STATUS:OLD    
 FORMAT:FORMATTED              ACCESS:SEQUENTIAL          

 OPENING tutorial02_mf.cbc
 FILE TYPE:DATA(BINARY)   UNIT   53   STATUS:REPLACE
 FORMAT:BINARY                 ACCESS:SEQUENTIAL          

 OPENING tutorial02_mf.hds
 FILE TYPE:DATA(BINARY)   UNIT   51   STATUS:REPLACE
 FORMAT:BINARY                 ACCESS:SEQUENTIAL          

 OPENING tutorial02_mf.ddn
 FILE TYPE:DATA(BINARY)   UNIT   52   STATUS:REPLACE
 FORMAT:BINARY                 ACCESS:SEQUENTIAL          

 BAS -- BASIC PACKAGE, VERSION 7, 5/2/2005 INPUT READ FROM UNIT   13
 
 MODFLOW was compiled using mixed precision
 Precision of REAL variables:           6
 Precision of DOUBLE PRECISION variables:          15

 DISCRETIZATION INPUT DATA READ FROM UNIT   11
 # DIS package for  MODFLOW-2005, generated by Flopy.
    1 LAYERS        10 ROWS        10 COLUMNS
    3 STRESS PERIOD(S) IN SIMULATION
 MODEL TIME UNIT IS DAYS
 MODEL LENGTH UNIT IS METERS
  Confining bed flag for each layer:
   0

                     DELR =  100.0000    

                     DELC =  100.0000    

 TOP ELEVATION OF LAYER 1 =  10.00000    

   MODEL LAYER BOTTOM EL. =  -50.0000     FOR LAYER   1


 STRESS PERIOD     LENGTH       TIME STEPS     MULTIPLIER FOR DELT    SS FLAG
 ----------------------------------------------------------------------------
        1        1.0000000          1                    1.000         SS
        2        100.00000        100                    1.000         TR
        3        100.00000        100                    1.000         TR

 COMBINED STEADY-STATE AND TRANSIENT SIMULATION



 
 # BAS6 package for  MODFLOW-2005, generated by Flopy.                           
 THE FREE FORMAT OPTION HAS BEEN SELECTED



                     BOUNDARY ARRAY FOR LAYER   1
 READING ON UNIT   13 WITH FORMAT: (10I10)             

 AQUIFER HEAD WILL BE SET TO  -999.99     AT ALL NO-FLOW NODES (IBOUND=0).



                       INITIAL HEAD FOR LAYER   1
 READING ON UNIT   13 WITH FORMAT: (10E15.6)           
 # OC package for  MODFLOW-2005, generated by Flopy.

 OUTPUT CONTROL IS SPECIFIED ONLY AT TIME STEPS FOR WHICH OUTPUT IS DESIRED
 COMPACT CELL-BY-CELL BUDGET FILES WILL BE WRITTEN
 AUXILIARY DATA WILL BE SAVED IN CELL-BY-CELL BUDGET FILES
 HEAD PRINT FORMAT CODE IS   0    DRAWDOWN PRINT FORMAT CODE IS   0
 HEADS WILL BE SAVED ON UNIT   51    DRAWDOWNS WILL BE SAVED ON UNIT   52

 LPF -- LAYER-PROPERTY FLOW PACKAGE, VERSION 7, 5/2/2005
         INPUT READ FROM UNIT   15
 # LPF package for  MODFLOW-2005, generated by Flopy.
 CELL-BY-CELL FLOWS WILL BE SAVED ON UNIT   53
 HEAD AT CELLS THAT CONVERT TO DRY= -1.00000E+30
 No named parameters

   LAYER FLAGS:
 LAYER       LAYTYP        LAYAVG         CHANI        LAYVKA        LAYWET
 ---------------------------------------------------------------------------
    1             1             0     1.000E+00             0             0

   INTERPRETATION OF LAYER FLAGS:
                        INTERBLOCK     HORIZONTAL    DATA IN
         LAYER TYPE   TRANSMISSIVITY   ANISOTROPY   ARRAY VKA   WETTABILITY
 LAYER      (LAYTYP)      (LAYAVG)       (CHANI)      (LAYVKA)      (LAYWET)
 ---------------------------------------------------------------------------
    1   CONVERTIBLE      HARMONIC     1.000E+00    VERTICAL K  NON-WETTABLE

 WETTING CAPABILITY IS NOT ACTIVE IN ANY LAYER

    HYD. COND. ALONG ROWS =  1.000000     FOR LAYER   1

      VERTICAL HYD. COND. =  1.000000     FOR LAYER   1

         SPECIFIC STORAGE =  1.000000E-05 FOR LAYER   1

           SPECIFIC YIELD =  1.000000E-01 FOR LAYER   1

 WEL -- WELL PACKAGE, VERSION 7, 5/2/2005 INPUT READ FROM UNIT   20
 # WEL package for  MODFLOW-2005, generated by Flopy.
 No named parameters
 MAXIMUM OF      1 ACTIVE WELLS AT ONE TIME


     0 Well parameters

 GHB -- GENERAL-HEAD BOUNDARY PACKAGE, VERSION 7, 5/2/2005
         INPUT READ FROM UNIT   23
 # GHB package for  MODFLOW-2005, generated by Flopy.
 No named parameters
 MAXIMUM OF     20 ACTIVE GHB CELLS AT ONE TIME


     0 GHB parameters

 PCG -- CONJUGATE-GRADIENT SOLUTION PACKAGE, VERSION 7, 5/2/2005
 # PCG package for  MODFLOW-2005, generated by Flopy.
 MAXIMUM OF     50 CALLS OF SOLUTION ROUTINE
 MAXIMUM OF     30 INTERNAL ITERATIONS PER CALL TO SOLUTION ROUTINE
 MATRIX PRECONDITIONING TYPE :    1



                                    SOLUTION BY THE CONJUGATE-GRADIENT METHOD
                                   -------------------------------------------
                    MAXIMUM NUMBER OF CALLS TO PCG ROUTINE =       50
                        MAXIMUM ITERATIONS PER CALL TO PCG =       30
                               MATRIX PRECONDITIONING TYPE =        1
        RELAXATION FACTOR (ONLY USED WITH PRECOND. TYPE 1) =    0.10000E+01
 PARAMETER OF POLYNOMIAL PRECOND. = 2 (2) OR IS CALCULATED :        0
                         HEAD CHANGE CRITERION FOR CLOSURE =    0.10000E-04
                     RESIDUAL CHANGE CRITERION FOR CLOSURE =    0.10000E-04
            PCG HEAD AND RESIDUAL CHANGE PRINTOUT INTERVAL =      999
     PRINTING FROM SOLVER IS LIMITED(1) OR SUPPRESSED (>1) =        3
                            STEADY-STATE DAMPING PARAMETER =    0.10000E+01
                               TRANSIENT DAMPING PARAMETER =    0.10000E+01
1
                            STRESS PERIOD NO.    1, LENGTH =  1.0000000    
                            -----------------------------------------------

                              NUMBER OF TIME STEPS =     1

                               MULTIPLIER FOR DELT =     1.000

                            INITIAL TIME STEP SIZE =  1.0000000    

 WELL NO.  LAYER   ROW   COL   STRESS RATE         
 --------------------------------------------------
      1      1      5      5       0.000    

      1 WELL 

 BOUND. NO. LAYER   ROW   COL     STAGE      CONDUCTANCE         
 ----------------------------------------------------------------
      1      1      1      1      10.000           6000.    
      2      1      1     10      10.000           6000.    
      3      1      2      1      10.000           6000.    
      4      1      2     10      10.000           6000.    
      5      1      3      1      10.000           6000.    
      6      1      3     10      10.000           6000.    
      7      1      4      1      10.000           6000.    
      8      1      4     10      10.000           6000.    
      9      1      5      1      10.000           6000.    
     10      1      5     10      10.000           6000.    
     11      1      6      1      10.000           6000.    
     12      1      6     10      10.000           6000.    
     13      1      7      1      10.000           6000.    
     14      1      7     10      10.000           6000.    
     15      1      8      1      10.000           6000.    
     16      1      8     10      10.000           6000.    
     17      1      9      1      10.000           6000.    
     18      1      9     10      10.000           6000.    
     19      1     10      1      10.000           6000.    
     20      1     10     10      10.000           6000.    

     20 GHB CELLS
 
 SOLVING FOR HEAD 

 OUTPUT CONTROL FOR STRESS PERIOD    1   TIME STEP    1
    SAVE HEAD FOR ALL LAYERS
    SAVE DRAWDOWN FOR ALL LAYERS
    SAVE BUDGET
    PRINT HEAD FOR ALL LAYERS
    PRINT BUDGET
 UBDSV2 SAVING "   CONSTANT HEAD" ON UNIT  53 AT TIME STEP  1, STRESS PERIOD   1
 UBDSV1 SAVING "FLOW RIGHT FACE " ON UNIT  53 AT TIME STEP  1, STRESS PERIOD   1
 UBDSV1 SAVING "FLOW FRONT FACE " ON UNIT  53 AT TIME STEP  1, STRESS PERIOD   1
1
              HEAD IN LAYER   1 AT END OF TIME STEP   1 IN STRESS PERIOD    1
  ---------------------------------------------------------------------------

            1           2           3           4           5           6           7           8           9          10
 ........................................................................................................................
   1   10.000      10.000      10.000      10.000      10.000      10.000      10.000      10.000      10.000      10.000    
   2   10.000      10.000      10.000      10.000      10.000      10.000      10.000      10.000      10.000      10.000    
   3   10.000      10.000      10.000      10.000      10.000      10.000      10.000      10.000      10.000      10.000    
   4   10.000      10.000      10.000      10.000      10.000      10.000      10.000      10.000      10.000      10.000    
   5   10.000      10.000      10.000      10.000      10.000      10.000      10.000      10.000      10.000      10.000    
   6   10.000      10.000      10.000      10.000      10.000      10.000      10.000      10.000      10.000      10.000    
   7   10.000      10.000      10.000      10.000      10.000      10.000      10.000      10.000      10.000      10.000    
   8   10.000      10.000      10.000      10.000      10.000      10.000      10.000      10.000      10.000      10.000    
   9   10.000      10.000      10.000      10.000      10.000      10.000      10.000      10.000      10.000      10.000    
  10   10.000      10.000      10.000      10.000      10.000      10.000      10.000      10.000      10.000      10.000    

 HEAD WILL BE SAVED ON UNIT   51 AT END OF TIME STEP    1, STRESS PERIOD    1

 DRAWDOWN WILL BE SAVED ON UNIT   52 AT END OF TIME STEP    1, STRESS PERIOD    1
1
  VOLUMETRIC BUDGET FOR ENTIRE MODEL AT END OF TIME STEP    1, STRESS PERIOD   1
  ------------------------------------------------------------------------------

     CUMULATIVE VOLUMES      L**3       RATES FOR THIS TIME STEP      L**3/T
     ------------------                 ------------------------

           IN:                                      IN:
           ---                                      ---
             STORAGE =           0.0000               STORAGE =           0.0000
       CONSTANT HEAD =           0.0000         CONSTANT HEAD =           0.0000
               WELLS =           0.0000                 WELLS =           0.0000
     HEAD DEP BOUNDS =           0.0000       HEAD DEP BOUNDS =           0.0000

            TOTAL IN =           0.0000              TOTAL IN =           0.0000

          OUT:                                     OUT:
          ----                                     ----
             STORAGE =           0.0000               STORAGE =           0.0000
       CONSTANT HEAD =           0.0000         CONSTANT HEAD =           0.0000
               WELLS =           0.0000                 WELLS =           0.0000
     HEAD DEP BOUNDS =           0.0000       HEAD DEP BOUNDS =           0.0000

           TOTAL OUT =           0.0000             TOTAL OUT =           0.0000

            IN - OUT =           0.0000              IN - OUT =           0.0000

 PERCENT DISCREPANCY =           0.00     PERCENT DISCREPANCY =           0.00






         TIME SUMMARY AT END OF TIME STEP    1 IN STRESS PERIOD    1
                    SECONDS     MINUTES      HOURS       DAYS        YEARS
                    -----------------------------------------------------------
   TIME STEP LENGTH  86400.      1440.0      24.000     1.00000     2.73785E-03
 STRESS PERIOD TIME  86400.      1440.0      24.000     1.00000     2.73785E-03
         TOTAL TIME  86400.      1440.0      24.000     1.00000     2.73785E-03
1
1
                            STRESS PERIOD NO.    2, LENGTH =  100.00000    
                            -----------------------------------------------

                              NUMBER OF TIME STEPS =   100

                               MULTIPLIER FOR DELT =     1.000

                            INITIAL TIME STEP SIZE =  1.0000000    

 WELL NO.  LAYER   ROW   COL   STRESS RATE         
 --------------------------------------------------
      1      1      5      5       0.000    

      1 WELL 

 BOUND. NO. LAYER   ROW   COL     STAGE      CONDUCTANCE         
 ----------------------------------------------------------------
      1      1      1      1      10.000           6000.    
      2      1      1     10       0.000           5000.    
      3      1      2      1      10.000           6000.    
      4      1      2     10       0.000           5000.    
      5      1      3      1      10.000           6000.    
      6      1      3     10       0.000           5000.    
      7      1      4      1      10.000           6000.    
      8      1      4     10       0.000           5000.    
      9      1      5      1      10.000           6000.    
     10      1      5     10       0.000           5000.    
     11      1      6      1      10.000           6000.    
     12      1      6     10       0.000           5000.    
     13      1      7      1      10.000           6000.    
     14      1      7     10       0.000           5000.    
     15      1      8      1      10.000           6000.    
     16      1      8     10       0.000           5000.    
     17      1      9      1      10.000           6000.    
     18      1      9     10       0.000           5000.    
     19      1     10      1      10.000           6000.    
     20      1     10     10       0.000           5000.    

     20 GHB CELLS
 
 SOLVING FOR HEAD 

 OUTPUT CONTROL FOR STRESS PERIOD    2   TIME STEP    1
    SAVE HEAD FOR ALL LAYERS
    SAVE DRAWDOWN FOR ALL LAYERS
    SAVE BUDGET
    PRINT HEAD FOR ALL LAYERS
    PRINT BUDGET
 UBDSV1 SAVING "         STORAGE" ON UNIT  53 AT TIME STEP  1, STRESS PERIOD   2
 UBDSV2 SAVING "   CONSTANT HEAD" ON UNIT  53 AT TIME STEP  1, STRESS PERIOD   2
 UBDSV1 SAVING "FLOW RIGHT FACE " ON UNIT  53 AT TIME STEP  1, STRESS PERIOD   2
 UBDSV1 SAVING "FLOW FRONT FACE " ON UNIT  53 AT TIME STEP  1, STRESS PERIOD   2
1
              HEAD IN LAYER   1 AT END OF TIME STEP   1 IN STRESS PERIOD    2
  ---------------------------------------------------------------------------

            1           2           3           4           5           6           7           8           9          10
 ........................................................................................................................
   1   10.000      10.000      10.000      10.000       10.00       10.00       9.999       9.978       9.589       1.739    
   2   10.000      10.000      10.000      10.000       10.00       10.00       9.999       9.978       9.589       1.739    
   3   10.000      10.000      10.000      10.000       10.00       10.00       9.999       9.978       9.589       1.739    
   4   10.000      10.000      10.000      10.000       10.00       10.00       9.999       9.978       9.589       1.739    
   5   10.000      10.000      10.000      10.000       10.00       10.00       9.999       9.978       9.589       1.739    
   6   10.000      10.000      10.000      10.000       10.00       10.00       9.999       9.978       9.589       1.739    
   7   10.000      10.000      10.000      10.000       10.00       10.00       9.999       9.978       9.589       1.739    
   8   10.000      10.000      10.000      10.000       10.00       10.00       9.999       9.978       9.589       1.739    
   9   10.000      10.000      10.000      10.000       10.00       10.00       9.999       9.978       9.589       1.739    
  10   10.000      10.000      10.000      10.000       10.00       10.00       9.999       9.978       9.589       1.739    

 HEAD WILL BE SAVED ON UNIT   51 AT END OF TIME STEP    1, STRESS PERIOD    2

 DRAWDOWN WILL BE SAVED ON UNIT   52 AT END OF TIME STEP    1, STRESS PERIOD    2
1
  VOLUMETRIC BUDGET FOR ENTIRE MODEL AT END OF TIME STEP    1, STRESS PERIOD   2
  ------------------------------------------------------------------------------

     CUMULATIVE VOLUMES      L**3       RATES FOR THIS TIME STEP      L**3/T
     ------------------                 ------------------------

           IN:                                      IN:
           ---                                      ---
             STORAGE =       86956.2969               STORAGE =       86956.2969
       CONSTANT HEAD =           0.0000         CONSTANT HEAD =           0.0000
               WELLS =           0.0000                 WELLS =           0.0000
     HEAD DEP BOUNDS =       2.6943E-07       HEAD DEP BOUNDS =       2.6943E-07

            TOTAL IN =       86956.2969              TOTAL IN =       86956.2969

          OUT:                                     OUT:
          ----                                     ----
             STORAGE =           0.0000               STORAGE =           0.0000
       CONSTANT HEAD =           0.0000         CONSTANT HEAD =           0.0000
               WELLS =           0.0000                 WELLS =           0.0000
     HEAD DEP BOUNDS =       86956.2969       HEAD DEP BOUNDS =       86956.2969

           TOTAL OUT =       86956.2969             TOTAL OUT =       86956.2969

            IN - OUT =           0.0000              IN - OUT =           0.0000

 PERCENT DISCREPANCY =           0.00     PERCENT DISCREPANCY =           0.00






         TIME SUMMARY AT END OF TIME STEP    1 IN STRESS PERIOD    2
                    SECONDS     MINUTES      HOURS       DAYS        YEARS
                    -----------------------------------------------------------
   TIME STEP LENGTH  86400.      1440.0      24.000     1.00000     2.73785E-03
 STRESS PERIOD TIME  86400.      1440.0      24.000     1.00000     2.73785E-03
         TOTAL TIME 1.72800E+05  2880.0      48.000      2.0000     5.47570E-03
1
 
 SOLVING FOR HEAD 

 OUTPUT CONTROL FOR STRESS PERIOD    2   TIME STEP    2
    SAVE HEAD FOR ALL LAYERS
    SAVE DRAWDOWN FOR ALL LAYERS
    SAVE BUDGET
    PRINT HEAD FOR ALL LAYERS
    PRINT BUDGET
 UBDSV1 SAVING "         STORAGE" ON UNIT  53 AT TIME STEP  2, STRESS PERIOD   2
 UBDSV2 SAVING "   CONSTANT HEAD" ON UNIT  53 AT TIME STEP  2, STRESS PERIOD   2
 UBDSV1 SAVING "FLOW RIGHT FACE " ON UNIT  53 AT TIME STEP  2, STRESS PERIOD   2
 UBDSV1 SAVING "FLOW FRONT FACE " ON UNIT  53 AT TIME STEP  2, STRESS PERIOD   2
1
              HEAD IN LAYER   1 AT END OF TIME STEP   2 IN STRESS PERIOD    2
  ---------------------------------------------------------------------------

            1           2           3           4           5           6           7           8           9          10
 ........................................................................................................................
   1   10.000      10.000      10.000       10.00       10.00       10.00       9.995       9.935       9.157      0.3695    
   2   10.000      10.000      10.000       10.00       10.00       10.00       9.995       9.935       9.157      0.3695    
   3   10.000      10.000      10.000       10.00       10.00       10.00       9.995       9.935       9.157      0.3695    
   4   10.000      10.000      10.000       10.00       10.00       10.00       9.995       9.935       9.157      0.3695    
   5   10.000      10.000      10.000       10.00       10.00       10.00       9.995       9.935       9.157      0.3695    
   6   10.000      10.000      10.000       10.00       10.00       10.00       9.995       9.935       9.157      0.3695    
   7   10.000      10.000      10.000       10.00       10.00       10.00       9.995       9.935       9.157      0.3695    
   8   10.000      10.000      10.000       10.00       10.00       10.00       9.995       9.935       9.157      0.3695    
   9   10.000      10.000      10.000       10.00       10.00       10.00       9.995       9.935       9.157      0.3695    
  10   10.000      10.000      10.000       10.00       10.00       10.00       9.995       9.935       9.157      0.3695    

 HEAD WILL BE SAVED ON UNIT   51 AT END OF TIME STEP    2, STRESS PERIOD    2

 DRAWDOWN WILL BE SAVED ON UNIT   52 AT END OF TIME STEP    2, STRESS PERIOD    2
1
  VOLUMETRIC BUDGET FOR ENTIRE MODEL AT END OF TIME STEP    2, STRESS PERIOD   2
  ------------------------------------------------------------------------------

     CUMULATIVE VOLUMES      L**3       RATES FOR THIS TIME STEP      L**3/T
     ------------------                 ------------------------

           IN:                                      IN:
           ---                                      ---
             STORAGE =      105433.3438               STORAGE =       18477.0488
       CONSTANT HEAD =           0.0000         CONSTANT HEAD =           0.0000
               WELLS =           0.0000                 WELLS =           0.0000
     HEAD DEP BOUNDS =       1.8210E-06       HEAD DEP BOUNDS =       1.5515E-06

            TOTAL IN =      105433.3438              TOTAL IN =       18477.0488

          OUT:                                     OUT:
          ----                                     ----
             STORAGE =           0.0000               STORAGE =           0.0000
       CONSTANT HEAD =           0.0000         CONSTANT HEAD =           0.0000
               WELLS =           0.0000                 WELLS =           0.0000
     HEAD DEP BOUNDS =      105433.3359       HEAD DEP BOUNDS =       18477.0371

           TOTAL OUT =      105433.3359             TOTAL OUT =       18477.0371

            IN - OUT =       7.8125E-03              IN - OUT =       1.1719E-02

 PERCENT DISCREPANCY =           0.00     PERCENT DISCREPANCY =           0.00






         TIME SUMMARY AT END OF TIME STEP    2 IN STRESS PERIOD    2
                    SECONDS     MINUTES      HOURS       DAYS        YEARS
                    -----------------------------------------------------------
   TIME STEP LENGTH  86400.      1440.0      24.000     1.00000     2.73785E-03
 STRESS PERIOD TIME 1.72800E+05  2880.0      48.000      2.0000     5.47570E-03
         TOTAL TIME 2.59200E+05  4320.0      72.000      3.0000     8.21355E-03
1
 
 SOLVING FOR HEAD 

 OUTPUT CONTROL FOR STRESS PERIOD    2   TIME STEP    3
    SAVE HEAD FOR ALL LAYERS
    SAVE DRAWDOWN FOR ALL LAYERS
    SAVE BUDGET
    PRINT HEAD FOR ALL LAYERS
    PRINT BUDGET
 UBDSV1 SAVING "         STORAGE" ON UNIT  53 AT TIME STEP  3, STRESS PERIOD   2
 UBDSV2 SAVING "   CONSTANT HEAD" ON UNIT  53 AT TIME STEP  3, STRESS PERIOD   2
 UBDSV1 SAVING "FLOW RIGHT FACE " ON UNIT  53 AT TIME STEP  3, STRESS PERIOD   2
 UBDSV1 SAVING "FLOW FRONT FACE " ON UNIT  53 AT TIME STEP  3, STRESS PERIOD   2
1
              HEAD IN LAYER   1 AT END OF TIME STEP   3 IN STRESS PERIOD    2
  ---------------------------------------------------------------------------

            1           2           3           4           5           6           7           8           9          10
 ........................................................................................................................
   1   10.000      10.000      10.000       10.00       10.00       9.999       9.989       9.876       8.757      0.1393    
   2   10.000      10.000      10.000       10.00       10.00       9.999       9.989       9.876       8.757      0.1393    
   3   10.000      10.000      10.000       10.00       10.00       9.999       9.989       9.876       8.757      0.1393    
   4   10.000      10.000      10.000       10.00       10.00       9.999       9.989       9.876       8.757      0.1393    
   5   10.000      10.000      10.000       10.00       10.00       9.999       9.989       9.876       8.757      0.1393    
   6   10.000      10.000      10.000       10.00       10.00       9.999       9.989       9.876       8.757      0.1393    
   7   10.000      10.000      10.000       10.00       10.00       9.999       9.989       9.876       8.757      0.1393    
   8   10.000      10.000      10.000       10.00       10.00       9.999       9.989       9.876       8.757      0.1393    
   9   10.000      10.000      10.000       10.00       10.00       9.999       9.989       9.876       8.757      0.1393    
  10   10.000      10.000      10.000       10.00       10.00       9.999       9.989       9.876       8.757      0.1393    

 HEAD WILL BE SAVED ON UNIT   51 AT END OF TIME STEP    3, STRESS PERIOD    2

 DRAWDOWN WILL BE SAVED ON UNIT   52 AT END OF TIME STEP    3, STRESS PERIOD    2
1
  VOLUMETRIC BUDGET FOR ENTIRE MODEL AT END OF TIME STEP    3, STRESS PERIOD   2
  ------------------------------------------------------------------------------

     CUMULATIVE VOLUMES      L**3       RATES FOR THIS TIME STEP      L**3/T
     ------------------                 ------------------------

           IN:                                      IN:
           ---                                      ---
             STORAGE =      112398.4375               STORAGE =        6965.0962
       CONSTANT HEAD =           0.0000         CONSTANT HEAD =           0.0000
               WELLS =           0.0000                 WELLS =           0.0000
     HEAD DEP BOUNDS =       8.1549E-06       HEAD DEP BOUNDS =       6.3339E-06

            TOTAL IN =      112398.4375              TOTAL IN =        6965.0962

          OUT:                                     OUT:
          ----                                     ----
             STORAGE =           0.0000               STORAGE =           0.0000
       CONSTANT HEAD =           0.0000         CONSTANT HEAD =           0.0000
               WELLS =           0.0000                 WELLS =           0.0000
     HEAD DEP BOUNDS =      112398.4297       HEAD DEP BOUNDS =        6965.0952

           TOTAL OUT =      112398.4297             TOTAL OUT =        6965.0952

            IN - OUT =       7.8125E-03              IN - OUT =       9.7656E-04

 PERCENT DISCREPANCY =           0.00     PERCENT DISCREPANCY =           0.00






         TIME SUMMARY AT END OF TIME STEP    3 IN STRESS PERIOD    2
                    SECONDS     MINUTES      HOURS       DAYS        YEARS
                    -----------------------------------------------------------
   TIME STEP LENGTH  86400.      1440.0      24.000     1.00000     2.73785E-03
 STRESS PERIOD TIME 2.59200E+05  4320.0      72.000      3.0000     8.21355E-03
         TOTAL TIME 3.45600E+05  5760.0      96.000      4.0000     1.09514E-02
1
 
 SOLVING FOR HEAD 

 OUTPUT CONTROL FOR STRESS PERIOD    2   TIME STEP    4
    SAVE HEAD FOR ALL LAYERS
    SAVE DRAWDOWN FOR ALL LAYERS
    SAVE BUDGET
    PRINT HEAD FOR ALL LAYERS
    PRINT BUDGET
 UBDSV1 SAVING "         STORAGE" ON UNIT  53 AT TIME STEP  4, STRESS PERIOD   2
 UBDSV2 SAVING "   CONSTANT HEAD" ON UNIT  53 AT TIME STEP  4, STRESS PERIOD   2
 UBDSV1 SAVING "FLOW RIGHT FACE " ON UNIT  53 AT TIME STEP  4, STRESS PERIOD   2
 UBDSV1 SAVING "FLOW FRONT FACE " ON UNIT  53 AT TIME STEP  4, STRESS PERIOD   2
1
              HEAD IN LAYER   1 AT END OF TIME STEP   4 IN STRESS PERIOD    2
  ---------------------------------------------------------------------------

            1           2           3           4           5           6           7           8           9          10
 ........................................................................................................................
   1   10.000      10.000       10.00       10.00       10.00       9.998       9.980       9.803       8.393      9.7773E-02
   2   10.000      10.000       10.00       10.00       10.00       9.998       9.980       9.803       8.393      9.7773E-02
   3   10.000      10.000       10.00       10.00       10.00       9.998       9.980       9.803       8.393      9.7773E-02
   4   10.000      10.000       10.00       10.00       10.00       9.998       9.980       9.803       8.393      9.7773E-02
   5   10.000      10.000       10.00       10.00       10.00       9.998       9.980       9.803       8.393      9.7773E-02
   6   10.000      10.000       10.00       10.00       10.00       9.998       9.980       9.803       8.393      9.7773E-02
   7   10.000      10.000       10.00       10.00       10.00       9.998       9.980       9.803       8.393      9.7773E-02
   8   10.000      10.000       10.00       10.00       10.00       9.998       9.980       9.803       8.393      9.7773E-02
   9   10.000      10.000       10.00       10.00       10.00       9.998       9.980       9.803       8.393      9.7773E-02
  10   10.000      10.000       10.00       10.00       10.00       9.998       9.980       9.803       8.393      9.7773E-02

 HEAD WILL BE SAVED ON UNIT   51 AT END OF TIME STEP    4, STRESS PERIOD    2

 DRAWDOWN WILL BE SAVED ON UNIT   52 AT END OF TIME STEP    4, STRESS PERIOD    2
1
  VOLUMETRIC BUDGET FOR ENTIRE MODEL AT END OF TIME STEP    4, STRESS PERIOD   2
  ------------------------------------------------------------------------------

     CUMULATIVE VOLUMES      L**3       RATES FOR THIS TIME STEP      L**3/T
     ------------------                 ------------------------

           IN:                                      IN:
           ---                                      ---
             STORAGE =      117287.1016               STORAGE =        4888.6646
       CONSTANT HEAD =           0.0000         CONSTANT HEAD =           0.0000
               WELLS =           0.0000                 WELLS =           0.0000
     HEAD DEP BOUNDS =       2.6918E-05       HEAD DEP BOUNDS =       1.8763E-05

            TOTAL IN =      117287.1016              TOTAL IN =        4888.6646

          OUT:                                     OUT:
          ----                                     ----
             STORAGE =           0.0000               STORAGE =           0.0000
       CONSTANT HEAD =           0.0000         CONSTANT HEAD =           0.0000
               WELLS =           0.0000                 WELLS =           0.0000
     HEAD DEP BOUNDS =      117287.1016       HEAD DEP BOUNDS =        4888.6699

           TOTAL OUT =      117287.1016             TOTAL OUT =        4888.6699

            IN - OUT =           0.0000              IN - OUT =      -5.3711E-03

 PERCENT DISCREPANCY =           0.00     PERCENT DISCREPANCY =          -0.00






         TIME SUMMARY AT END OF TIME STEP    4 IN STRESS PERIOD    2
                    SECONDS     MINUTES      HOURS       DAYS        YEARS
                    -----------------------------------------------------------
   TIME STEP LENGTH  86400.      1440.0      24.000     1.00000     2.73785E-03
 STRESS PERIOD TIME 3.45600E+05  5760.0      96.000      4.0000     1.09514E-02
         TOTAL TIME 4.32000E+05  7200.0      120.00      5.0000     1.36893E-02
1
 
 SOLVING FOR HEAD 

 OUTPUT CONTROL FOR STRESS PERIOD    2   TIME STEP    5
    SAVE HEAD FOR ALL LAYERS
    SAVE DRAWDOWN FOR ALL LAYERS
    SAVE BUDGET
    PRINT HEAD FOR ALL LAYERS
    PRINT BUDGET
 UBDSV1 SAVING "         STORAGE" ON UNIT  53 AT TIME STEP  5, STRESS PERIOD   2
 UBDSV2 SAVING "   CONSTANT HEAD" ON UNIT  53 AT TIME STEP  5, STRESS PERIOD   2
 UBDSV1 SAVING "FLOW RIGHT FACE " ON UNIT  53 AT TIME STEP  5, STRESS PERIOD   2
 UBDSV1 SAVING "FLOW FRONT FACE " ON UNIT  53 AT TIME STEP  5, STRESS PERIOD   2
1
              HEAD IN LAYER   1 AT END OF TIME STEP   5 IN STRESS PERIOD    2
  ---------------------------------------------------------------------------

            1           2           3           4           5           6           7           8           9          10
 ........................................................................................................................
   1   10.000      10.000       10.00       10.00       10.00       9.997       9.967       9.720       8.062      8.7769E-02
   2   10.000      10.000       10.00       10.00       10.00       9.997       9.967       9.720       8.062      8.7769E-02
   3   10.000      10.000       10.00       10.00       10.00       9.997       9.967       9.720       8.062      8.7769E-02
   4   10.000      10.000       10.00       10.00       10.00       9.997       9.967       9.720       8.062      8.7769E-02
   5   10.000      10.000       10.00       10.00       10.00       9.997       9.967       9.720       8.062      8.7769E-02
   6   10.000      10.000       10.00       10.00       10.00       9.997       9.967       9.720       8.062      8.7769E-02
   7   10.000      10.000       10.00       10.00       10.00       9.997       9.967       9.720       8.062      8.7769E-02
   8   10.000      10.000       10.00       10.00       10.00       9.997       9.967       9.720       8.062      8.7769E-02
   9   10.000      10.000       10.00       10.00       10.00       9.997       9.967       9.720       8.062      8.7769E-02
  10   10.000      10.000       10.00       10.00       10.00       9.997       9.967       9.720       8.062      8.7769E-02

 HEAD WILL BE SAVED ON UNIT   51 AT END OF TIME STEP    5, STRESS PERIOD    2

 DRAWDOWN WILL BE SAVED ON UNIT   52 AT END OF TIME STEP    5, STRESS PERIOD    2
1
  VOLUMETRIC BUDGET FOR ENTIRE MODEL AT END OF TIME STEP    5, STRESS PERIOD   2
  ------------------------------------------------------------------------------

     CUMULATIVE VOLUMES      L**3       RATES FOR THIS TIME STEP      L**3/T
     ------------------                 ------------------------

           IN:                                      IN:
           ---                                      ---
             STORAGE =      121675.5703               STORAGE =        4388.4653
       CONSTANT HEAD =           0.0000         CONSTANT HEAD =           0.0000
               WELLS =           0.0000                 WELLS =           0.0000
     HEAD DEP BOUNDS =       9.3279E-05       HEAD DEP BOUNDS =       6.6360E-05

            TOTAL IN =      121675.5703              TOTAL IN =        4388.4653

          OUT:                                     OUT:
          ----                                     ----
             STORAGE =           0.0000               STORAGE =           0.0000
       CONSTANT HEAD =           0.0000         CONSTANT HEAD =           0.0000
               WELLS =           0.0000                 WELLS =           0.0000
     HEAD DEP BOUNDS =      121675.5547       HEAD DEP BOUNDS =        4388.4512

           TOTAL OUT =      121675.5547             TOTAL OUT =        4388.4512

            IN - OUT =       1.5625E-02              IN - OUT =       1.4160E-02

 PERCENT DISCREPANCY =           0.00     PERCENT DISCREPANCY =           0.00






         TIME SUMMARY AT END OF TIME STEP    5 IN STRESS PERIOD    2
                    SECONDS     MINUTES      HOURS       DAYS        YEARS
                    -----------------------------------------------------------
   TIME STEP LENGTH  86400.      1440.0      24.000     1.00000     2.73785E-03
 STRESS PERIOD TIME 4.32000E+05  7200.0      120.00      5.0000     1.36893E-02
         TOTAL TIME 5.18400E+05  8640.0      144.00      6.0000     1.64271E-02
1
 
 SOLVING FOR HEAD 

 OUTPUT CONTROL FOR STRESS PERIOD    2   TIME STEP    6
    SAVE HEAD FOR ALL LAYERS
    SAVE DRAWDOWN FOR ALL LAYERS
    SAVE BUDGET
    PRINT HEAD FOR ALL LAYERS
    PRINT BUDGET
 UBDSV1 SAVING "         STORAGE" ON UNIT  53 AT TIME STEP  6, STRESS PERIOD   2
 UBDSV2 SAVING "   CONSTANT HEAD" ON UNIT  53 AT TIME STEP  6, STRESS PERIOD   2
 UBDSV1 SAVING "FLOW RIGHT FACE " ON UNIT  53 AT TIME STEP  6, STRESS PERIOD   2
 UBDSV1 SAVING "FLOW FRONT FACE " ON UNIT  53 AT TIME STEP  6, STRESS PERIOD   2
1
              HEAD IN LAYER   1 AT END OF TIME STEP   6 IN STRESS PERIOD    2
  ---------------------------------------------------------------------------

            1           2           3           4           5           6           7           8           9          10
 ........................................................................................................................
   1   10.000      10.000       10.00       10.00       9.999       9.994       9.950       9.630       7.760      8.3265E-02
   2   10.000      10.000       10.00       10.00       9.999       9.994       9.950       9.630       7.760      8.3265E-02
   3   10.000      10.000       10.00       10.00       9.999       9.994       9.950       9.630       7.760      8.3265E-02
   4   10.000      10.000       10.00       10.00       9.999       9.994       9.950       9.630       7.760      8.3265E-02
   5   10.000      10.000       10.00       10.00       9.999       9.994       9.950       9.630       7.760      8.3265E-02
   6   10.000      10.000       10.00       10.00       9.999       9.994       9.950       9.630       7.760      8.3265E-02
   7   10.000      10.000       10.00       10.00       9.999       9.994       9.950       9.630       7.760      8.3265E-02
   8   10.000      10.000       10.00       10.00       9.999       9.994       9.950       9.630       7.760      8.3265E-02
   9   10.000      10.000       10.00       10.00       9.999       9.994       9.950       9.630       7.760      8.3265E-02
  10   10.000      10.000       10.00       10.00       9.999       9.994       9.950       9.630       7.760      8.3265E-02

 HEAD WILL BE SAVED ON UNIT   51 AT END OF TIME STEP    6, STRESS PERIOD    2

 DRAWDOWN WILL BE SAVED ON UNIT   52 AT END OF TIME STEP    6, STRESS PERIOD    2
1
  VOLUMETRIC BUDGET FOR ENTIRE MODEL AT END OF TIME STEP    6, STRESS PERIOD   2
  ------------------------------------------------------------------------------

     CUMULATIVE VOLUMES      L**3       RATES FOR THIS TIME STEP      L**3/T
     ------------------                 ------------------------

           IN:                                      IN:
           ---                                      ---
             STORAGE =      125838.7969               STORAGE =        4163.2246
       CONSTANT HEAD =           0.0000         CONSTANT HEAD =           0.0000
               WELLS =           0.0000                 WELLS =           0.0000
     HEAD DEP BOUNDS =       2.5004E-04       HEAD DEP BOUNDS =       1.5676E-04

            TOTAL IN =      125838.7969              TOTAL IN =        4163.2246

          OUT:                                     OUT:
          ----                                     ----
             STORAGE =           0.0000               STORAGE =           0.0000
       CONSTANT HEAD =           0.0000         CONSTANT HEAD =           0.0000
               WELLS =           0.0000                 WELLS =           0.0000
     HEAD DEP BOUNDS =      125838.7812       HEAD DEP BOUNDS =        4163.2285

           TOTAL OUT =      125838.7812             TOTAL OUT =        4163.2285

            IN - OUT =       1.5625E-02              IN - OUT =      -3.9062E-03

 PERCENT DISCREPANCY =           0.00     PERCENT DISCREPANCY =          -0.00






         TIME SUMMARY AT END OF TIME STEP    6 IN STRESS PERIOD    2
                    SECONDS     MINUTES      HOURS       DAYS        YEARS
                    -----------------------------------------------------------
   TIME STEP LENGTH  86400.      1440.0      24.000     1.00000     2.73785E-03
 STRESS PERIOD TIME 5.18400E+05  8640.0      144.00      6.0000     1.64271E-02
         TOTAL TIME 6.04800E+05  10080.      168.00      7.0000     1.91650E-02
1
 
 SOLVING FOR HEAD 

 OUTPUT CONTROL FOR STRESS PERIOD    2   TIME STEP    7
    SAVE HEAD FOR ALL LAYERS
    SAVE DRAWDOWN FOR ALL LAYERS
    SAVE BUDGET
    PRINT HEAD FOR ALL LAYERS
    PRINT BUDGET
 UBDSV1 SAVING "         STORAGE" ON UNIT  53 AT TIME STEP  7, STRESS PERIOD   2
 UBDSV2 SAVING "   CONSTANT HEAD" ON UNIT  53 AT TIME STEP  7, STRESS PERIOD   2
 UBDSV1 SAVING "FLOW RIGHT FACE " ON UNIT  53 AT TIME STEP  7, STRESS PERIOD   2
 UBDSV1 SAVING "FLOW FRONT FACE " ON UNIT  53 AT TIME STEP  7, STRESS PERIOD   2
1
              HEAD IN LAYER   1 AT END OF TIME STEP   7 IN STRESS PERIOD    2
  ---------------------------------------------------------------------------

            1           2           3           4           5           6           7           8           9          10
 ........................................................................................................................
   1   10.000       10.00       10.00       10.00       9.999       9.991       9.930       9.533       7.483      7.9923E-02
   2   10.000       10.00       10.00       10.00       9.999       9.991       9.930       9.533       7.483      7.9923E-02
   3   10.000       10.00       10.00       10.00       9.999       9.991       9.930       9.533       7.483      7.9923E-02
   4   10.000       10.00       10.00       10.00       9.999       9.991       9.930       9.533       7.483      7.9923E-02
   5   10.000       10.00       10.00       10.00       9.999       9.991       9.930       9.533       7.483      7.9923E-02
   6   10.000       10.00       10.00       10.00       9.999       9.991       9.930       9.533       7.483      7.9923E-02
   7   10.000       10.00       10.00       10.00       9.999       9.991       9.930       9.533       7.483      7.9923E-02
   8   10.000       10.00       10.00       10.00       9.999       9.991       9.930       9.533       7.483      7.9923E-02
   9   10.000       10.00       10.00       10.00       9.999       9.991       9.930       9.533       7.483      7.9923E-02
  10   10.000       10.00       10.00       10.00       9.999       9.991       9.930       9.533       7.483      7.9923E-02

 HEAD WILL BE SAVED ON UNIT   51 AT END OF TIME STEP    7, STRESS PERIOD    2

 DRAWDOWN WILL BE SAVED ON UNIT   52 AT END OF TIME STEP    7, STRESS PERIOD    2
1
  VOLUMETRIC BUDGET FOR ENTIRE MODEL AT END OF TIME STEP    7, STRESS PERIOD   2
  ------------------------------------------------------------------------------

     CUMULATIVE VOLUMES      L**3       RATES FOR THIS TIME STEP      L**3/T
     ------------------                 ------------------------

           IN:                                      IN:
           ---                                      ---
             STORAGE =      129834.9609               STORAGE =        3996.1624
       CONSTANT HEAD =           0.0000         CONSTANT HEAD =           0.0000
               WELLS =           0.0000                 WELLS =           0.0000
     HEAD DEP BOUNDS =       5.5166E-04       HEAD DEP BOUNDS =       3.0162E-04

            TOTAL IN =      129834.9609              TOTAL IN =        3996.1626

          OUT:                                     OUT:
          ----                                     ----
             STORAGE =           0.0000               STORAGE =           0.0000
       CONSTANT HEAD =           0.0000         CONSTANT HEAD =           0.0000
               WELLS =           0.0000                 WELLS =           0.0000
     HEAD DEP BOUNDS =      129834.9297       HEAD DEP BOUNDS =        3996.1467

           TOTAL OUT =      129834.9297             TOTAL OUT =        3996.1467

            IN - OUT =       3.1250E-02              IN - OUT =       1.5869E-02

 PERCENT DISCREPANCY =           0.00     PERCENT DISCREPANCY =           0.00






         TIME SUMMARY AT END OF TIME STEP    7 IN STRESS PERIOD    2
                    SECONDS     MINUTES      HOURS       DAYS        YEARS
                    -----------------------------------------------------------
   TIME STEP LENGTH  86400.      1440.0      24.000     1.00000     2.73785E-03
 STRESS PERIOD TIME 6.04800E+05  10080.      168.00      7.0000     1.91650E-02
         TOTAL TIME 6.91200E+05  11520.      192.00      8.0000     2.19028E-02
1
 
 SOLVING FOR HEAD 

 OUTPUT CONTROL FOR STRESS PERIOD    2   TIME STEP    8
    SAVE HEAD FOR ALL LAYERS
    SAVE DRAWDOWN FOR ALL LAYERS
    SAVE BUDGET
    PRINT HEAD FOR ALL LAYERS
    PRINT BUDGET
 UBDSV1 SAVING "         STORAGE" ON UNIT  53 AT TIME STEP  8, STRESS PERIOD   2
 UBDSV2 SAVING "   CONSTANT HEAD" ON UNIT  53 AT TIME STEP  8, STRESS PERIOD   2
 UBDSV1 SAVING "FLOW RIGHT FACE " ON UNIT  53 AT TIME STEP  8, STRESS PERIOD   2
 UBDSV1 SAVING "FLOW FRONT FACE " ON UNIT  53 AT TIME STEP  8, STRESS PERIOD   2
1
              HEAD IN LAYER   1 AT END OF TIME STEP   8 IN STRESS PERIOD    2
  ---------------------------------------------------------------------------

            1           2           3           4           5           6           7           8           9          10
 ........................................................................................................................
   1   10.000       10.00       10.00       10.00       9.998       9.987       9.907       9.433       7.230      7.6997E-02
   2   10.000       10.00       10.00       10.00       9.998       9.987       9.907       9.433       7.230      7.6997E-02
   3   10.000       10.00       10.00       10.00       9.998       9.987       9.907       9.433       7.230      7.6997E-02
   4   10.000       10.00       10.00       10.00       9.998       9.987       9.907       9.433       7.230      7.6997E-02
   5   10.000       10.00       10.00       10.00       9.998       9.987       9.907       9.433       7.230      7.6997E-02
   6   10.000       10.00       10.00       10.00       9.998       9.987       9.907       9.433       7.230      7.6997E-02
   7   10.000       10.00       10.00       10.00       9.998       9.987       9.907       9.433       7.230      7.6997E-02
   8   10.000       10.00       10.00       10.00       9.998       9.987       9.907       9.433       7.230      7.6997E-02
   9   10.000       10.00       10.00       10.00       9.998       9.987       9.907       9.433       7.230      7.6997E-02
  10   10.000       10.00       10.00       10.00       9.998       9.987       9.907       9.433       7.230      7.6997E-02

 HEAD WILL BE SAVED ON UNIT   51 AT END OF TIME STEP    8, STRESS PERIOD    2

 DRAWDOWN WILL BE SAVED ON UNIT   52 AT END OF TIME STEP    8, STRESS PERIOD    2
1
  VOLUMETRIC BUDGET FOR ENTIRE MODEL AT END OF TIME STEP    8, STRESS PERIOD   2
  ------------------------------------------------------------------------------

     CUMULATIVE VOLUMES      L**3       RATES FOR THIS TIME STEP      L**3/T
     ------------------                 ------------------------

           IN:                                      IN:
           ---                                      ---
             STORAGE =      133684.7812               STORAGE =        3849.8201
       CONSTANT HEAD =           0.0000         CONSTANT HEAD =           0.0000
               WELLS =           0.0000                 WELLS =           0.0000
     HEAD DEP BOUNDS =       1.5547E-03       HEAD DEP BOUNDS =       1.0031E-03

            TOTAL IN =      133684.7812              TOTAL IN =        3849.8210

          OUT:                                     OUT:
          ----                                     ----
             STORAGE =           0.0000               STORAGE =           0.0000
       CONSTANT HEAD =           0.0000         CONSTANT HEAD =           0.0000
               WELLS =           0.0000                 WELLS =           0.0000
     HEAD DEP BOUNDS =      133684.7656       HEAD DEP BOUNDS =        3849.8291

           TOTAL OUT =      133684.7656             TOTAL OUT =        3849.8291

            IN - OUT =       1.5625E-02              IN - OUT =      -8.0566E-03

 PERCENT DISCREPANCY =           0.00     PERCENT DISCREPANCY =          -0.00






         TIME SUMMARY AT END OF TIME STEP    8 IN STRESS PERIOD    2
                    SECONDS     MINUTES      HOURS       DAYS        YEARS
                    -----------------------------------------------------------
   TIME STEP LENGTH  86400.      1440.0      24.000     1.00000     2.73785E-03
 STRESS PERIOD TIME 6.91200E+05  11520.      192.00      8.0000     2.19028E-02
         TOTAL TIME 7.77600E+05  12960.      216.00      9.0000     2.46407E-02
1
 
 SOLVING FOR HEAD 

 OUTPUT CONTROL FOR STRESS PERIOD    2   TIME STEP    9
    SAVE HEAD FOR ALL LAYERS
    SAVE DRAWDOWN FOR ALL LAYERS
    SAVE BUDGET
    PRINT HEAD FOR ALL LAYERS
    PRINT BUDGET
 UBDSV1 SAVING "         STORAGE" ON UNIT  53 AT TIME STEP  9, STRESS PERIOD   2
 UBDSV2 SAVING "   CONSTANT HEAD" ON UNIT  53 AT TIME STEP  9, STRESS PERIOD   2
 UBDSV1 SAVING "FLOW RIGHT FACE " ON UNIT  53 AT TIME STEP  9, STRESS PERIOD   2
 UBDSV1 SAVING "FLOW FRONT FACE " ON UNIT  53 AT TIME STEP  9, STRESS PERIOD   2
1
              HEAD IN LAYER   1 AT END OF TIME STEP   9 IN STRESS PERIOD    2
  ---------------------------------------------------------------------------

            1           2           3           4           5           6           7           8           9          10
 ........................................................................................................................
   1   10.000       10.00       10.00       10.00       9.998       9.982       9.880       9.330       6.996      7.4336E-02
   2   10.000       10.00       10.00       10.00       9.998       9.982       9.880       9.330       6.996      7.4336E-02
   3   10.000       10.00       10.00       10.00       9.998       9.982       9.880       9.330       6.996      7.4336E-02
   4   10.000       10.00       10.00       10.00       9.998       9.982       9.880       9.330       6.996      7.4336E-02
   5   10.000       10.00       10.00       10.00       9.998       9.982       9.880       9.330       6.996      7.4336E-02
   6   10.000       10.00       10.00       10.00       9.998       9.982       9.880       9.330       6.996      7.4336E-02
   7   10.000       10.00       10.00       10.00       9.998       9.982       9.880       9.330       6.996      7.4336E-02
   8   10.000       10.00       10.00       10.00       9.998       9.982       9.880       9.330       6.996      7.4336E-02
   9   10.000       10.00       10.00       10.00       9.998       9.982       9.880       9.330       6.996      7.4336E-02
  10   10.000       10.00       10.00       10.00       9.998       9.982       9.880       9.330       6.996      7.4336E-02

 HEAD WILL BE SAVED ON UNIT   51 AT END OF TIME STEP    9, STRESS PERIOD    2

 DRAWDOWN WILL BE SAVED ON UNIT   52 AT END OF TIME STEP    9, STRESS PERIOD    2
1
  VOLUMETRIC BUDGET FOR ENTIRE MODEL AT END OF TIME STEP    9, STRESS PERIOD   2
  ------------------------------------------------------------------------------

     CUMULATIVE VOLUMES      L**3       RATES FOR THIS TIME STEP      L**3/T
     ------------------                 ------------------------

           IN:                                      IN:
           ---                                      ---
             STORAGE =      137401.5938               STORAGE =        3716.8164
       CONSTANT HEAD =           0.0000         CONSTANT HEAD =           0.0000
               WELLS =           0.0000                 WELLS =           0.0000
     HEAD DEP BOUNDS =       3.3843E-03       HEAD DEP BOUNDS =       1.8296E-03

            TOTAL IN =      137401.5938              TOTAL IN =        3716.8181

          OUT:                                     OUT:
          ----                                     ----
             STORAGE =           0.0000               STORAGE =           0.0000
       CONSTANT HEAD =           0.0000         CONSTANT HEAD =           0.0000
               WELLS =           0.0000                 WELLS =           0.0000
     HEAD DEP BOUNDS =      137401.5781       HEAD DEP BOUNDS =        3716.8093

           TOTAL OUT =      137401.5781             TOTAL OUT =        3716.8093

            IN - OUT =       1.5625E-02              IN - OUT =       8.7891E-03

 PERCENT DISCREPANCY =           0.00     PERCENT DISCREPANCY =           0.00






         TIME SUMMARY AT END OF TIME STEP    9 IN STRESS PERIOD    2
                    SECONDS     MINUTES      HOURS       DAYS        YEARS
                    -----------------------------------------------------------
   TIME STEP LENGTH  86400.      1440.0      24.000     1.00000     2.73785E-03
 STRESS PERIOD TIME 7.77600E+05  12960.      216.00      9.0000     2.46407E-02
         TOTAL TIME 8.64000E+05  14400.      240.00     10.0000     2.73785E-02
1
 
 SOLVING FOR HEAD 

 OUTPUT CONTROL FOR STRESS PERIOD    2   TIME STEP   10
    SAVE HEAD FOR ALL LAYERS
    SAVE DRAWDOWN FOR ALL LAYERS
    SAVE BUDGET
    PRINT HEAD FOR ALL LAYERS
    PRINT BUDGET
 UBDSV1 SAVING "         STORAGE" ON UNIT  53 AT TIME STEP 10, STRESS PERIOD   2
 UBDSV2 SAVING "   CONSTANT HEAD" ON UNIT  53 AT TIME STEP 10, STRESS PERIOD   2
 UBDSV1 SAVING "FLOW RIGHT FACE " ON UNIT  53 AT TIME STEP 10, STRESS PERIOD   2
 UBDSV1 SAVING "FLOW FRONT FACE " ON UNIT  53 AT TIME STEP 10, STRESS PERIOD   2
1
              HEAD IN LAYER   1 AT END OF TIME STEP  10 IN STRESS PERIOD    2
  ---------------------------------------------------------------------------

            1           2           3           4           5           6           7           8           9          10
 ........................................................................................................................
   1   10.000       10.00       10.00       10.00       9.996       9.976       9.850       9.226       6.781      7.1894E-02
   2   10.000       10.00       10.00       10.00       9.996       9.976       9.850       9.226       6.781      7.1894E-02
   3   10.000       10.00       10.00       10.00       9.996       9.976       9.850       9.226       6.781      7.1894E-02
   4   10.000       10.00       10.00       10.00       9.996       9.976       9.850       9.226       6.781      7.1894E-02
   5   10.000       10.00       10.00       10.00       9.996       9.976       9.850       9.226       6.781      7.1894E-02
   6   10.000       10.00       10.00       10.00       9.996       9.976       9.850       9.226       6.781      7.1894E-02
   7   10.000       10.00       10.00       10.00       9.996       9.976       9.850       9.226       6.781      7.1894E-02
   8   10.000       10.00       10.00       10.00       9.996       9.976       9.850       9.226       6.781      7.1894E-02
   9   10.000       10.00       10.00       10.00       9.996       9.976       9.850       9.226       6.781      7.1894E-02
  10   10.000       10.00       10.00       10.00       9.996       9.976       9.850       9.226       6.781      7.1894E-02

 HEAD WILL BE SAVED ON UNIT   51 AT END OF TIME STEP   10, STRESS PERIOD    2

 DRAWDOWN WILL BE SAVED ON UNIT   52 AT END OF TIME STEP   10, STRESS PERIOD    2
1
  VOLUMETRIC BUDGET FOR ENTIRE MODEL AT END OF TIME STEP   10, STRESS PERIOD   2
  ------------------------------------------------------------------------------

     CUMULATIVE VOLUMES      L**3       RATES FOR THIS TIME STEP      L**3/T
     ------------------                 ------------------------

           IN:                                      IN:
           ---                                      ---
             STORAGE =      140996.3125               STORAGE =        3594.7190
       CONSTANT HEAD =           0.0000         CONSTANT HEAD =           0.0000
               WELLS =           0.0000                 WELLS =           0.0000
     HEAD DEP BOUNDS =       6.6752E-03       HEAD DEP BOUNDS =       3.2909E-03

            TOTAL IN =      140996.3125              TOTAL IN =        3594.7222

          OUT:                                     OUT:
          ----                                     ----
             STORAGE =           0.0000               STORAGE =           0.0000
       CONSTANT HEAD =           0.0000         CONSTANT HEAD =           0.0000
               WELLS =           0.0000                 WELLS =           0.0000
     HEAD DEP BOUNDS =      140996.2969       HEAD DEP BOUNDS =        3594.7166

           TOTAL OUT =      140996.2969             TOTAL OUT =        3594.7166

            IN - OUT =       1.5625E-02              IN - OUT =       5.6152E-03

 PERCENT DISCREPANCY =           0.00     PERCENT DISCREPANCY =           0.00






         TIME SUMMARY AT END OF TIME STEP   10 IN STRESS PERIOD    2
                    SECONDS     MINUTES      HOURS       DAYS        YEARS
                    -----------------------------------------------------------
   TIME STEP LENGTH  86400.      1440.0      24.000     1.00000     2.73785E-03
 STRESS PERIOD TIME 8.64000E+05  14400.      240.00     10.0000     2.73785E-02
         TOTAL TIME 9.50400E+05  15840.      264.00      11.000     3.01164E-02
1
 
 SOLVING FOR HEAD 

 OUTPUT CONTROL FOR STRESS PERIOD    2   TIME STEP   11
    SAVE HEAD FOR ALL LAYERS
    SAVE DRAWDOWN FOR ALL LAYERS
    SAVE BUDGET
    PRINT HEAD FOR ALL LAYERS
    PRINT BUDGET
 UBDSV1 SAVING "         STORAGE" ON UNIT  53 AT TIME STEP 11, STRESS PERIOD   2
 UBDSV2 SAVING "   CONSTANT HEAD" ON UNIT  53 AT TIME STEP 11, STRESS PERIOD   2
 UBDSV1 SAVING "FLOW RIGHT FACE " ON UNIT  53 AT TIME STEP 11, STRESS PERIOD   2
 UBDSV1 SAVING "FLOW FRONT FACE " ON UNIT  53 AT TIME STEP 11, STRESS PERIOD   2
1
              HEAD IN LAYER   1 AT END OF TIME STEP  11 IN STRESS PERIOD    2
  ---------------------------------------------------------------------------

            1           2           3           4           5           6           7           8           9          10
 ........................................................................................................................
   1   10.000       10.00       10.00       9.999       9.995       9.968       9.818       9.120       6.582      6.9644E-02
   2   10.000       10.00       10.00       9.999       9.995       9.968       9.818       9.120       6.582      6.9644E-02
   3   10.000       10.00       10.00       9.999       9.995       9.968       9.818       9.120       6.582      6.9644E-02
   4   10.000       10.00       10.00       9.999       9.995       9.968       9.818       9.120       6.582      6.9644E-02
   5   10.000       10.00       10.00       9.999       9.995       9.968       9.818       9.120       6.582      6.9644E-02
   6   10.000       10.00       10.00       9.999       9.995       9.968       9.818       9.120       6.582      6.9644E-02
   7   10.000       10.00       10.00       9.999       9.995       9.968       9.818       9.120       6.582      6.9644E-02
   8   10.000       10.00       10.00       9.999       9.995       9.968       9.818       9.120       6.582      6.9644E-02
   9   10.000       10.00       10.00       9.999       9.995       9.968       9.818       9.120       6.582      6.9644E-02
  10   10.000       10.00       10.00       9.999       9.995       9.968       9.818       9.120       6.582      6.9644E-02

 HEAD WILL BE SAVED ON UNIT   51 AT END OF TIME STEP   11, STRESS PERIOD    2

 DRAWDOWN WILL BE SAVED ON UNIT   52 AT END OF TIME STEP   11, STRESS PERIOD    2
1
  VOLUMETRIC BUDGET FOR ENTIRE MODEL AT END OF TIME STEP   11, STRESS PERIOD   2
  ------------------------------------------------------------------------------

     CUMULATIVE VOLUMES      L**3       RATES FOR THIS TIME STEP      L**3/T
     ------------------                 ------------------------

           IN:                                      IN:
           ---                                      ---
             STORAGE =      144478.5312               STORAGE =        3482.2253
       CONSTANT HEAD =           0.0000         CONSTANT HEAD =           0.0000
               WELLS =           0.0000                 WELLS =           0.0000
     HEAD DEP BOUNDS =       1.2150E-02       HEAD DEP BOUNDS =       5.4747E-03

            TOTAL IN =      144478.5469              TOTAL IN =        3482.2307

          OUT:                                     OUT:
          ----                                     ----
             STORAGE =           0.0000               STORAGE =           0.0000
       CONSTANT HEAD =           0.0000         CONSTANT HEAD =           0.0000
               WELLS =           0.0000                 WELLS =           0.0000
     HEAD DEP BOUNDS =      144478.5156       HEAD DEP BOUNDS =        3482.2129

           TOTAL OUT =      144478.5156             TOTAL OUT =        3482.2129

            IN - OUT =       3.1250E-02              IN - OUT =       1.7822E-02

 PERCENT DISCREPANCY =           0.00     PERCENT DISCREPANCY =           0.00






         TIME SUMMARY AT END OF TIME STEP   11 IN STRESS PERIOD    2
                    SECONDS     MINUTES      HOURS       DAYS        YEARS
                    -----------------------------------------------------------
   TIME STEP LENGTH  86400.      1440.0      24.000     1.00000     2.73785E-03
 STRESS PERIOD TIME 9.50400E+05  15840.      264.00      11.000     3.01164E-02
         TOTAL TIME 1.03680E+06  17280.      288.00      12.000     3.28542E-02
1
 
 SOLVING FOR HEAD 

 OUTPUT CONTROL FOR STRESS PERIOD    2   TIME STEP   12
    SAVE HEAD FOR ALL LAYERS
    SAVE DRAWDOWN FOR ALL LAYERS
    SAVE BUDGET
    PRINT HEAD FOR ALL LAYERS
    PRINT BUDGET
 UBDSV1 SAVING "         STORAGE" ON UNIT  53 AT TIME STEP 12, STRESS PERIOD   2
 UBDSV2 SAVING "   CONSTANT HEAD" ON UNIT  53 AT TIME STEP 12, STRESS PERIOD   2
 UBDSV1 SAVING "FLOW RIGHT FACE " ON UNIT  53 AT TIME STEP 12, STRESS PERIOD   2
 UBDSV1 SAVING "FLOW FRONT FACE " ON UNIT  53 AT TIME STEP 12, STRESS PERIOD   2
1
              HEAD IN LAYER   1 AT END OF TIME STEP  12 IN STRESS PERIOD    2
  ---------------------------------------------------------------------------

            1           2           3           4           5           6           7           8           9          10
 ........................................................................................................................
   1   10.000       10.00       10.00       9.999       9.993       9.960       9.783       9.015       6.397      6.7564E-02
   2   10.000       10.00       10.00       9.999       9.993       9.960       9.783       9.015       6.397      6.7564E-02
   3   10.000       10.00       10.00       9.999       9.993       9.960       9.783       9.015       6.397      6.7564E-02
   4   10.000       10.00       10.00       9.999       9.993       9.960       9.783       9.015       6.397      6.7564E-02
   5   10.000       10.00       10.00       9.999       9.993       9.960       9.783       9.015       6.397      6.7564E-02
   6   10.000       10.00       10.00       9.999       9.993       9.960       9.783       9.015       6.397      6.7564E-02
   7   10.000       10.00       10.00       9.999       9.993       9.960       9.783       9.015       6.397      6.7564E-02
   8   10.000       10.00       10.00       9.999       9.993       9.960       9.783       9.015       6.397      6.7564E-02
   9   10.000       10.00       10.00       9.999       9.993       9.960       9.783       9.015       6.397      6.7564E-02
  10   10.000       10.00       10.00       9.999       9.993       9.960       9.783       9.015       6.397      6.7564E-02

 HEAD WILL BE SAVED ON UNIT   51 AT END OF TIME STEP   12, STRESS PERIOD    2

 DRAWDOWN WILL BE SAVED ON UNIT   52 AT END OF TIME STEP   12, STRESS PERIOD    2
1
  VOLUMETRIC BUDGET FOR ENTIRE MODEL AT END OF TIME STEP   12, STRESS PERIOD   2
  ------------------------------------------------------------------------------

     CUMULATIVE VOLUMES      L**3       RATES FOR THIS TIME STEP      L**3/T
     ------------------                 ------------------------

           IN:                                      IN:
           ---                                      ---
             STORAGE =      147856.7188               STORAGE =        3378.1919
       CONSTANT HEAD =           0.0000         CONSTANT HEAD =           0.0000
               WELLS =           0.0000                 WELLS =           0.0000
     HEAD DEP BOUNDS =       2.0594E-02       HEAD DEP BOUNDS =       8.4445E-03

            TOTAL IN =      147856.7344              TOTAL IN =        3378.2004

          OUT:                                     OUT:
          ----                                     ----
             STORAGE =           0.0000               STORAGE =           0.0000
       CONSTANT HEAD =           0.0000         CONSTANT HEAD =           0.0000
               WELLS =           0.0000                 WELLS =           0.0000
     HEAD DEP BOUNDS =      147856.7344       HEAD DEP BOUNDS =        3378.2163

           TOTAL OUT =      147856.7344             TOTAL OUT =        3378.2163

            IN - OUT =           0.0000              IN - OUT =      -1.5869E-02

 PERCENT DISCREPANCY =           0.00     PERCENT DISCREPANCY =          -0.00






         TIME SUMMARY AT END OF TIME STEP   12 IN STRESS PERIOD    2
                    SECONDS     MINUTES      HOURS       DAYS        YEARS
                    -----------------------------------------------------------
   TIME STEP LENGTH  86400.      1440.0      24.000     1.00000     2.73785E-03
 STRESS PERIOD TIME 1.03680E+06  17280.      288.00      12.000     3.28542E-02
         TOTAL TIME 1.12320E+06  18720.      312.00      13.000     3.55921E-02
1
 
 SOLVING FOR HEAD 

 OUTPUT CONTROL FOR STRESS PERIOD    2   TIME STEP   13
    SAVE HEAD FOR ALL LAYERS
    SAVE DRAWDOWN FOR ALL LAYERS
    SAVE BUDGET
    PRINT HEAD FOR ALL LAYERS
    PRINT BUDGET
 UBDSV1 SAVING "         STORAGE" ON UNIT  53 AT TIME STEP 13, STRESS PERIOD   2
 UBDSV2 SAVING "   CONSTANT HEAD" ON UNIT  53 AT TIME STEP 13, STRESS PERIOD   2
 UBDSV1 SAVING "FLOW RIGHT FACE " ON UNIT  53 AT TIME STEP 13, STRESS PERIOD   2
 UBDSV1 SAVING "FLOW FRONT FACE " ON UNIT  53 AT TIME STEP 13, STRESS PERIOD   2
1
              HEAD IN LAYER   1 AT END OF TIME STEP  13 IN STRESS PERIOD    2
  ---------------------------------------------------------------------------

            1           2           3           4           5           6           7           8           9          10
 ........................................................................................................................
   1   10.000       10.00       10.00       9.999       9.991       9.950       9.746       8.910       6.225      6.5637E-02
   2   10.000       10.00       10.00       9.999       9.991       9.950       9.746       8.910       6.225      6.5637E-02
   3   10.000       10.00       10.00       9.999       9.991       9.950       9.746       8.910       6.225      6.5637E-02
   4   10.000       10.00       10.00       9.999       9.991       9.950       9.746       8.910       6.225      6.5637E-02
   5   10.000       10.00       10.00       9.999       9.991       9.950       9.746       8.910       6.225      6.5637E-02
   6   10.000       10.00       10.00       9.999       9.991       9.950       9.746       8.910       6.225      6.5637E-02
   7   10.000       10.00       10.00       9.999       9.991       9.950       9.746       8.910       6.225      6.5637E-02
   8   10.000       10.00       10.00       9.999       9.991       9.950       9.746       8.910       6.225      6.5637E-02
   9   10.000       10.00       10.00       9.999       9.991       9.950       9.746       8.910       6.225      6.5637E-02
  10   10.000       10.00       10.00       9.999       9.991       9.950       9.746       8.910       6.225      6.5637E-02

 HEAD WILL BE SAVED ON UNIT   51 AT END OF TIME STEP   13, STRESS PERIOD    2

 DRAWDOWN WILL BE SAVED ON UNIT   52 AT END OF TIME STEP   13, STRESS PERIOD    2
1
  VOLUMETRIC BUDGET FOR ENTIRE MODEL AT END OF TIME STEP   13, STRESS PERIOD   2
  ------------------------------------------------------------------------------

     CUMULATIVE VOLUMES      L**3       RATES FOR THIS TIME STEP      L**3/T
     ------------------                 ------------------------

           IN:                                      IN:
           ---                                      ---
             STORAGE =      151138.5469               STORAGE =        3281.8257
       CONSTANT HEAD =           0.0000         CONSTANT HEAD =           0.0000
               WELLS =           0.0000                 WELLS =           0.0000
     HEAD DEP BOUNDS =       3.3308E-02       HEAD DEP BOUNDS =       1.2714E-02

            TOTAL IN =      151138.5781              TOTAL IN =        3281.8384

          OUT:                                     OUT:
          ----                                     ----
             STORAGE =           0.0000               STORAGE =           0.0000
       CONSTANT HEAD =           0.0000         CONSTANT HEAD =           0.0000
               WELLS =           0.0000                 WELLS =           0.0000
     HEAD DEP BOUNDS =      151138.5781       HEAD DEP BOUNDS =        3281.8452

           TOTAL OUT =      151138.5781             TOTAL OUT =        3281.8452

            IN - OUT =           0.0000              IN - OUT =      -6.8359E-03

 PERCENT DISCREPANCY =           0.00     PERCENT DISCREPANCY =          -0.00






         TIME SUMMARY AT END OF TIME STEP   13 IN STRESS PERIOD    2
                    SECONDS     MINUTES      HOURS       DAYS        YEARS
                    -----------------------------------------------------------
   TIME STEP LENGTH  86400.      1440.0      24.000     1.00000     2.73785E-03
 STRESS PERIOD TIME 1.12320E+06  18720.      312.00      13.000     3.55921E-02
         TOTAL TIME 1.20960E+06  20160.      336.00      14.000     3.83299E-02
1
 
 SOLVING FOR HEAD 

 OUTPUT CONTROL FOR STRESS PERIOD    2   TIME STEP   14
    SAVE HEAD FOR ALL LAYERS
    SAVE DRAWDOWN FOR ALL LAYERS
    SAVE BUDGET
    PRINT HEAD FOR ALL LAYERS
    PRINT BUDGET
 UBDSV1 SAVING "         STORAGE" ON UNIT  53 AT TIME STEP 14, STRESS PERIOD   2
 UBDSV2 SAVING "   CONSTANT HEAD" ON UNIT  53 AT TIME STEP 14, STRESS PERIOD   2
 UBDSV1 SAVING "FLOW RIGHT FACE " ON UNIT  53 AT TIME STEP 14, STRESS PERIOD   2
 UBDSV1 SAVING "FLOW FRONT FACE " ON UNIT  53 AT TIME STEP 14, STRESS PERIOD   2
1
              HEAD IN LAYER   1 AT END OF TIME STEP  14 IN STRESS PERIOD    2
  ---------------------------------------------------------------------------

            1           2           3           4           5           6           7           8           9          10
 ........................................................................................................................
   1   10.000       10.00       10.00       9.998       9.989       9.939       9.706       8.806       6.065      6.3846E-02
   2   10.000       10.00       10.00       9.998       9.989       9.939       9.706       8.806       6.065      6.3846E-02
   3   10.000       10.00       10.00       9.998       9.989       9.939       9.706       8.806       6.065      6.3846E-02
   4   10.000       10.00       10.00       9.998       9.989       9.939       9.706       8.806       6.065      6.3846E-02
   5   10.000       10.00       10.00       9.998       9.989       9.939       9.706       8.806       6.065      6.3846E-02
   6   10.000       10.00       10.00       9.998       9.989       9.939       9.706       8.806       6.065      6.3846E-02
   7   10.000       10.00       10.00       9.998       9.989       9.939       9.706       8.806       6.065      6.3846E-02
   8   10.000       10.00       10.00       9.998       9.989       9.939       9.706       8.806       6.065      6.3846E-02
   9   10.000       10.00       10.00       9.998       9.989       9.939       9.706       8.806       6.065      6.3846E-02
  10   10.000       10.00       10.00       9.998       9.989       9.939       9.706       8.806       6.065      6.3846E-02

 HEAD WILL BE SAVED ON UNIT   51 AT END OF TIME STEP   14, STRESS PERIOD    2

 DRAWDOWN WILL BE SAVED ON UNIT   52 AT END OF TIME STEP   14, STRESS PERIOD    2
1
  VOLUMETRIC BUDGET FOR ENTIRE MODEL AT END OF TIME STEP   14, STRESS PERIOD   2
  ------------------------------------------------------------------------------

     CUMULATIVE VOLUMES      L**3       RATES FOR THIS TIME STEP      L**3/T
     ------------------                 ------------------------

           IN:                                      IN:
           ---                                      ---
             STORAGE =      154330.8125               STORAGE =        3192.2732
       CONSTANT HEAD =           0.0000         CONSTANT HEAD =           0.0000
               WELLS =           0.0000                 WELLS =           0.0000
     HEAD DEP BOUNDS =       5.1706E-02       HEAD DEP BOUNDS =       1.8398E-02

            TOTAL IN =      154330.8594              TOTAL IN =        3192.2915

          OUT:                                     OUT:
          ----                                     ----
             STORAGE =           0.0000               STORAGE =           0.0000
       CONSTANT HEAD =           0.0000         CONSTANT HEAD =           0.0000
               WELLS =           0.0000                 WELLS =           0.0000
     HEAD DEP BOUNDS =      154330.8750       HEAD DEP BOUNDS =        3192.2944

           TOTAL OUT =      154330.8750             TOTAL OUT =        3192.2944

            IN - OUT =      -1.5625E-02              IN - OUT =      -2.9297E-03

 PERCENT DISCREPANCY =          -0.00     PERCENT DISCREPANCY =          -0.00






         TIME SUMMARY AT END OF TIME STEP   14 IN STRESS PERIOD    2
                    SECONDS     MINUTES      HOURS       DAYS        YEARS
                    -----------------------------------------------------------
   TIME STEP LENGTH  86400.      1440.0      24.000     1.00000     2.73785E-03
 STRESS PERIOD TIME 1.20960E+06  20160.      336.00      14.000     3.83299E-02
         TOTAL TIME 1.29600E+06  21600.      360.00      15.000     4.10678E-02
1
 
 SOLVING FOR HEAD 

 OUTPUT CONTROL FOR STRESS PERIOD    2   TIME STEP   15
    SAVE HEAD FOR ALL LAYERS
    SAVE DRAWDOWN FOR ALL LAYERS
    SAVE BUDGET
    PRINT HEAD FOR ALL LAYERS
    PRINT BUDGET
 UBDSV1 SAVING "         STORAGE" ON UNIT  53 AT TIME STEP 15, STRESS PERIOD   2
 UBDSV2 SAVING "   CONSTANT HEAD" ON UNIT  53 AT TIME STEP 15, STRESS PERIOD   2
 UBDSV1 SAVING "FLOW RIGHT FACE " ON UNIT  53 AT TIME STEP 15, STRESS PERIOD   2
 UBDSV1 SAVING "FLOW FRONT FACE " ON UNIT  53 AT TIME STEP 15, STRESS PERIOD   2
1
              HEAD IN LAYER   1 AT END OF TIME STEP  15 IN STRESS PERIOD    2
  ---------------------------------------------------------------------------

            1           2           3           4           5           6           7           8           9          10
 ........................................................................................................................
   1   10.000       10.00       10.00       9.998       9.986       9.927       9.665       8.703       5.916      6.2178E-02
   2   10.000       10.00       10.00       9.998       9.986       9.927       9.665       8.703       5.916      6.2178E-02
   3   10.000       10.00       10.00       9.998       9.986       9.927       9.665       8.703       5.916      6.2178E-02
   4   10.000       10.00       10.00       9.998       9.986       9.927       9.665       8.703       5.916      6.2178E-02
   5   10.000       10.00       10.00       9.998       9.986       9.927       9.665       8.703       5.916      6.2178E-02
   6   10.000       10.00       10.00       9.998       9.986       9.927       9.665       8.703       5.916      6.2178E-02
   7   10.000       10.00       10.00       9.998       9.986       9.927       9.665       8.703       5.916      6.2178E-02
   8   10.000       10.00       10.00       9.998       9.986       9.927       9.665       8.703       5.916      6.2178E-02
   9   10.000       10.00       10.00       9.998       9.986       9.927       9.665       8.703       5.916      6.2178E-02
  10   10.000       10.00       10.00       9.998       9.986       9.927       9.665       8.703       5.916      6.2178E-02

 HEAD WILL BE SAVED ON UNIT   51 AT END OF TIME STEP   15, STRESS PERIOD    2

 DRAWDOWN WILL BE SAVED ON UNIT   52 AT END OF TIME STEP   15, STRESS PERIOD    2
1
  VOLUMETRIC BUDGET FOR ENTIRE MODEL AT END OF TIME STEP   15, STRESS PERIOD   2
  ------------------------------------------------------------------------------

     CUMULATIVE VOLUMES      L**3       RATES FOR THIS TIME STEP      L**3/T
     ------------------                 ------------------------

           IN:                                      IN:
           ---                                      ---
             STORAGE =      157439.6562               STORAGE =        3108.8433
       CONSTANT HEAD =           0.0000         CONSTANT HEAD =           0.0000
               WELLS =           0.0000                 WELLS =           0.0000
     HEAD DEP BOUNDS =       7.8188E-02       HEAD DEP BOUNDS =       2.6482E-02

            TOTAL IN =      157439.7344              TOTAL IN =        3108.8696

          OUT:                                     OUT:
          ----                                     ----
             STORAGE =           0.0000               STORAGE =           0.0000
       CONSTANT HEAD =           0.0000         CONSTANT HEAD =           0.0000
               WELLS =           0.0000                 WELLS =           0.0000
     HEAD DEP BOUNDS =      157439.7656       HEAD DEP BOUNDS =        3108.8855

           TOTAL OUT =      157439.7656             TOTAL OUT =        3108.8855

            IN - OUT =      -3.1250E-02              IN - OUT =      -1.5869E-02

 PERCENT DISCREPANCY =          -0.00     PERCENT DISCREPANCY =          -0.00






         TIME SUMMARY AT END OF TIME STEP   15 IN STRESS PERIOD    2
                    SECONDS     MINUTES      HOURS       DAYS        YEARS
                    -----------------------------------------------------------
   TIME STEP LENGTH  86400.      1440.0      24.000     1.00000     2.73785E-03
 STRESS PERIOD TIME 1.29600E+06  21600.      360.00      15.000     4.10678E-02
         TOTAL TIME 1.38240E+06  23040.      384.00      16.000     4.38056E-02
1
 
 SOLVING FOR HEAD 

 OUTPUT CONTROL FOR STRESS PERIOD    2   TIME STEP   16
    SAVE HEAD FOR ALL LAYERS
    SAVE DRAWDOWN FOR ALL LAYERS
    SAVE BUDGET
    PRINT HEAD FOR ALL LAYERS
    PRINT BUDGET
 UBDSV1 SAVING "         STORAGE" ON UNIT  53 AT TIME STEP 16, STRESS PERIOD   2
 UBDSV2 SAVING "   CONSTANT HEAD" ON UNIT  53 AT TIME STEP 16, STRESS PERIOD   2
 UBDSV1 SAVING "FLOW RIGHT FACE " ON UNIT  53 AT TIME STEP 16, STRESS PERIOD   2
 UBDSV1 SAVING "FLOW FRONT FACE " ON UNIT  53 AT TIME STEP 16, STRESS PERIOD   2
1
              HEAD IN LAYER   1 AT END OF TIME STEP  16 IN STRESS PERIOD    2
  ---------------------------------------------------------------------------

            1           2           3           4           5           6           7           8           9          10
 ........................................................................................................................
   1    10.00       10.00       10.00       9.997       9.983       9.914       9.622       8.602       5.776      6.0620E-02
   2    10.00       10.00       10.00       9.997       9.983       9.914       9.622       8.602       5.776      6.0620E-02
   3    10.00       10.00       10.00       9.997       9.983       9.914       9.622       8.602       5.776      6.0620E-02
   4    10.00       10.00       10.00       9.997       9.983       9.914       9.622       8.602       5.776      6.0620E-02
   5    10.00       10.00       10.00       9.997       9.983       9.914       9.622       8.602       5.776      6.0620E-02
   6    10.00       10.00       10.00       9.997       9.983       9.914       9.622       8.602       5.776      6.0620E-02
   7    10.00       10.00       10.00       9.997       9.983       9.914       9.622       8.602       5.776      6.0620E-02
   8    10.00       10.00       10.00       9.997       9.983       9.914       9.622       8.602       5.776      6.0620E-02
   9    10.00       10.00       10.00       9.997       9.983       9.914       9.622       8.602       5.776      6.0620E-02
  10    10.00       10.00       10.00       9.997       9.983       9.914       9.622       8.602       5.776      6.0620E-02

 HEAD WILL BE SAVED ON UNIT   51 AT END OF TIME STEP   16, STRESS PERIOD    2

 DRAWDOWN WILL BE SAVED ON UNIT   52 AT END OF TIME STEP   16, STRESS PERIOD    2
1
  VOLUMETRIC BUDGET FOR ENTIRE MODEL AT END OF TIME STEP   16, STRESS PERIOD   2
  ------------------------------------------------------------------------------

     CUMULATIVE VOLUMES      L**3       RATES FOR THIS TIME STEP      L**3/T
     ------------------                 ------------------------

           IN:                                      IN:
           ---                                      ---
             STORAGE =      160470.6562               STORAGE =        3031.0010
       CONSTANT HEAD =           0.0000         CONSTANT HEAD =           0.0000
               WELLS =           0.0000                 WELLS =           0.0000
     HEAD DEP BOUNDS =           0.1153       HEAD DEP BOUNDS =       3.7126E-02

            TOTAL IN =      160470.7656              TOTAL IN =        3031.0381

          OUT:                                     OUT:
          ----                                     ----
             STORAGE =           0.0000               STORAGE =           0.0000
       CONSTANT HEAD =           0.0000         CONSTANT HEAD =           0.0000
               WELLS =           0.0000                 WELLS =           0.0000
     HEAD DEP BOUNDS =      160470.7812       HEAD DEP BOUNDS =        3031.0171

           TOTAL OUT =      160470.7812             TOTAL OUT =        3031.0171

            IN - OUT =      -1.5625E-02              IN - OUT =       2.0996E-02

 PERCENT DISCREPANCY =          -0.00     PERCENT DISCREPANCY =           0.00






         TIME SUMMARY AT END OF TIME STEP   16 IN STRESS PERIOD    2
                    SECONDS     MINUTES      HOURS       DAYS        YEARS
                    -----------------------------------------------------------
   TIME STEP LENGTH  86400.      1440.0      24.000     1.00000     2.73785E-03
 STRESS PERIOD TIME 1.38240E+06  23040.      384.00      16.000     4.38056E-02
         TOTAL TIME 1.46880E+06  24480.      408.00      17.000     4.65435E-02
1
 
 SOLVING FOR HEAD 

 OUTPUT CONTROL FOR STRESS PERIOD    2   TIME STEP   17
    SAVE HEAD FOR ALL LAYERS
    SAVE DRAWDOWN FOR ALL LAYERS
    SAVE BUDGET
    PRINT HEAD FOR ALL LAYERS
    PRINT BUDGET
 UBDSV1 SAVING "         STORAGE" ON UNIT  53 AT TIME STEP 17, STRESS PERIOD   2
 UBDSV2 SAVING "   CONSTANT HEAD" ON UNIT  53 AT TIME STEP 17, STRESS PERIOD   2
 UBDSV1 SAVING "FLOW RIGHT FACE " ON UNIT  53 AT TIME STEP 17, STRESS PERIOD   2
 UBDSV1 SAVING "FLOW FRONT FACE " ON UNIT  53 AT TIME STEP 17, STRESS PERIOD   2
1
              HEAD IN LAYER   1 AT END OF TIME STEP  17 IN STRESS PERIOD    2
  ---------------------------------------------------------------------------

            1           2           3           4           5           6           7           8           9          10
 ........................................................................................................................
   1    10.00       10.00       9.999       9.996       9.979       9.899       9.578       8.502       5.644      5.9163E-02
   2    10.00       10.00       9.999       9.996       9.979       9.899       9.578       8.502       5.644      5.9163E-02
   3    10.00       10.00       9.999       9.996       9.979       9.899       9.578       8.502       5.644      5.9163E-02
   4    10.00       10.00       9.999       9.996       9.979       9.899       9.578       8.502       5.644      5.9163E-02
   5    10.00       10.00       9.999       9.996       9.979       9.899       9.578       8.502       5.644      5.9163E-02
   6    10.00       10.00       9.999       9.996       9.979       9.899       9.578       8.502       5.644      5.9163E-02
   7    10.00       10.00       9.999       9.996       9.979       9.899       9.578       8.502       5.644      5.9163E-02
   8    10.00       10.00       9.999       9.996       9.979       9.899       9.578       8.502       5.644      5.9163E-02
   9    10.00       10.00       9.999       9.996       9.979       9.899       9.578       8.502       5.644      5.9163E-02
  10    10.00       10.00       9.999       9.996       9.979       9.899       9.578       8.502       5.644      5.9163E-02

 HEAD WILL BE SAVED ON UNIT   51 AT END OF TIME STEP   17, STRESS PERIOD    2

 DRAWDOWN WILL BE SAVED ON UNIT   52 AT END OF TIME STEP   17, STRESS PERIOD    2
1
  VOLUMETRIC BUDGET FOR ENTIRE MODEL AT END OF TIME STEP   17, STRESS PERIOD   2
  ------------------------------------------------------------------------------

     CUMULATIVE VOLUMES      L**3       RATES FOR THIS TIME STEP      L**3/T
     ------------------                 ------------------------

           IN:                                      IN:
           ---                                      ---
             STORAGE =      163428.7656               STORAGE =        2958.1028
       CONSTANT HEAD =           0.0000         CONSTANT HEAD =           0.0000
               WELLS =           0.0000                 WELLS =           0.0000
     HEAD DEP BOUNDS =           0.1662       HEAD DEP BOUNDS =       5.0869E-02

            TOTAL IN =      163428.9375              TOTAL IN =        2958.1536

          OUT:                                     OUT:
          ----                                     ----
             STORAGE =           0.0000               STORAGE =           0.0000
       CONSTANT HEAD =           0.0000         CONSTANT HEAD =           0.0000
               WELLS =           0.0000                 WELLS =           0.0000
     HEAD DEP BOUNDS =      163428.9375       HEAD DEP BOUNDS =        2958.1545

           TOTAL OUT =      163428.9375             TOTAL OUT =        2958.1545

            IN - OUT =           0.0000              IN - OUT =      -9.7656E-04

 PERCENT DISCREPANCY =           0.00     PERCENT DISCREPANCY =          -0.00






         TIME SUMMARY AT END OF TIME STEP   17 IN STRESS PERIOD    2
                    SECONDS     MINUTES      HOURS       DAYS        YEARS
                    -----------------------------------------------------------
   TIME STEP LENGTH  86400.      1440.0      24.000     1.00000     2.73785E-03
 STRESS PERIOD TIME 1.46880E+06  24480.      408.00      17.000     4.65435E-02
         TOTAL TIME 1.55520E+06  25920.      432.00      18.000     4.92813E-02
1
 
 SOLVING FOR HEAD 

 OUTPUT CONTROL FOR STRESS PERIOD    2   TIME STEP   18
    SAVE HEAD FOR ALL LAYERS
    SAVE DRAWDOWN FOR ALL LAYERS
    SAVE BUDGET
    PRINT HEAD FOR ALL LAYERS
    PRINT BUDGET
 UBDSV1 SAVING "         STORAGE" ON UNIT  53 AT TIME STEP 18, STRESS PERIOD   2
 UBDSV2 SAVING "   CONSTANT HEAD" ON UNIT  53 AT TIME STEP 18, STRESS PERIOD   2
 UBDSV1 SAVING "FLOW RIGHT FACE " ON UNIT  53 AT TIME STEP 18, STRESS PERIOD   2
 UBDSV1 SAVING "FLOW FRONT FACE " ON UNIT  53 AT TIME STEP 18, STRESS PERIOD   2
1
              HEAD IN LAYER   1 AT END OF TIME STEP  18 IN STRESS PERIOD    2
  ---------------------------------------------------------------------------

            1           2           3           4           5           6           7           8           9          10
 ........................................................................................................................
   1    10.00       10.00       9.999       9.995       9.975       9.884       9.532       8.405       5.521      5.7797E-02
   2    10.00       10.00       9.999       9.995       9.975       9.884       9.532       8.405       5.521      5.7797E-02
   3    10.00       10.00       9.999       9.995       9.975       9.884       9.532       8.405       5.521      5.7797E-02
   4    10.00       10.00       9.999       9.995       9.975       9.884       9.532       8.405       5.521      5.7797E-02
   5    10.00       10.00       9.999       9.995       9.975       9.884       9.532       8.405       5.521      5.7797E-02
   6    10.00       10.00       9.999       9.995       9.975       9.884       9.532       8.405       5.521      5.7797E-02
   7    10.00       10.00       9.999       9.995       9.975       9.884       9.532       8.405       5.521      5.7797E-02
   8    10.00       10.00       9.999       9.995       9.975       9.884       9.532       8.405       5.521      5.7797E-02
   9    10.00       10.00       9.999       9.995       9.975       9.884       9.532       8.405       5.521      5.7797E-02
  10    10.00       10.00       9.999       9.995       9.975       9.884       9.532       8.405       5.521      5.7797E-02

 HEAD WILL BE SAVED ON UNIT   51 AT END OF TIME STEP   18, STRESS PERIOD    2

 DRAWDOWN WILL BE SAVED ON UNIT   52 AT END OF TIME STEP   18, STRESS PERIOD    2
1
  VOLUMETRIC BUDGET FOR ENTIRE MODEL AT END OF TIME STEP   18, STRESS PERIOD   2
  ------------------------------------------------------------------------------

     CUMULATIVE VOLUMES      L**3       RATES FOR THIS TIME STEP      L**3/T
     ------------------                 ------------------------

           IN:                                      IN:
           ---                                      ---
             STORAGE =      166318.5156               STORAGE =        2889.7554
       CONSTANT HEAD =           0.0000         CONSTANT HEAD =           0.0000
               WELLS =           0.0000                 WELLS =           0.0000
     HEAD DEP BOUNDS =           0.2354       HEAD DEP BOUNDS =       6.9188E-02

            TOTAL IN =      166318.7500              TOTAL IN =        2889.8245

          OUT:                                     OUT:
          ----                                     ----
             STORAGE =           0.0000               STORAGE =           0.0000
       CONSTANT HEAD =           0.0000         CONSTANT HEAD =           0.0000
               WELLS =           0.0000                 WELLS =           0.0000
     HEAD DEP BOUNDS =      166318.7812       HEAD DEP BOUNDS =        2889.8379

           TOTAL OUT =      166318.7812             TOTAL OUT =        2889.8379

            IN - OUT =      -3.1250E-02              IN - OUT =      -1.3428E-02

 PERCENT DISCREPANCY =          -0.00     PERCENT DISCREPANCY =          -0.00






         TIME SUMMARY AT END OF TIME STEP   18 IN STRESS PERIOD    2
                    SECONDS     MINUTES      HOURS       DAYS        YEARS
                    -----------------------------------------------------------
   TIME STEP LENGTH  86400.      1440.0      24.000     1.00000     2.73785E-03
 STRESS PERIOD TIME 1.55520E+06  25920.      432.00      18.000     4.92813E-02
         TOTAL TIME 1.64160E+06  27360.      456.00      19.000     5.20192E-02
1
 
 SOLVING FOR HEAD 

 OUTPUT CONTROL FOR STRESS PERIOD    2   TIME STEP   19
    SAVE HEAD FOR ALL LAYERS
    SAVE DRAWDOWN FOR ALL LAYERS
    SAVE BUDGET
    PRINT HEAD FOR ALL LAYERS
    PRINT BUDGET
 UBDSV1 SAVING "         STORAGE" ON UNIT  53 AT TIME STEP 19, STRESS PERIOD   2
 UBDSV2 SAVING "   CONSTANT HEAD" ON UNIT  53 AT TIME STEP 19, STRESS PERIOD   2
 UBDSV1 SAVING "FLOW RIGHT FACE " ON UNIT  53 AT TIME STEP 19, STRESS PERIOD   2
 UBDSV1 SAVING "FLOW FRONT FACE " ON UNIT  53 AT TIME STEP 19, STRESS PERIOD   2
1
              HEAD IN LAYER   1 AT END OF TIME STEP  19 IN STRESS PERIOD    2
  ---------------------------------------------------------------------------

            1           2           3           4           5           6           7           8           9          10
 ........................................................................................................................
   1    10.00       10.00       9.999       9.994       9.970       9.867       9.486       8.309       5.405      5.6513E-02
   2    10.00       10.00       9.999       9.994       9.970       9.867       9.486       8.309       5.405      5.6513E-02
   3    10.00       10.00       9.999       9.994       9.970       9.867       9.486       8.309       5.405      5.6513E-02
   4    10.00       10.00       9.999       9.994       9.970       9.867       9.486       8.309       5.405      5.6513E-02
   5    10.00       10.00       9.999       9.994       9.970       9.867       9.486       8.309       5.405      5.6513E-02
   6    10.00       10.00       9.999       9.994       9.970       9.867       9.486       8.309       5.405      5.6513E-02
   7    10.00       10.00       9.999       9.994       9.970       9.867       9.486       8.309       5.405      5.6513E-02
   8    10.00       10.00       9.999       9.994       9.970       9.867       9.486       8.309       5.405      5.6513E-02
   9    10.00       10.00       9.999       9.994       9.970       9.867       9.486       8.309       5.405      5.6513E-02
  10    10.00       10.00       9.999       9.994       9.970       9.867       9.486       8.309       5.405      5.6513E-02

 HEAD WILL BE SAVED ON UNIT   51 AT END OF TIME STEP   19, STRESS PERIOD    2

 DRAWDOWN WILL BE SAVED ON UNIT   52 AT END OF TIME STEP   19, STRESS PERIOD    2
1
  VOLUMETRIC BUDGET FOR ENTIRE MODEL AT END OF TIME STEP   19, STRESS PERIOD   2
  ------------------------------------------------------------------------------

     CUMULATIVE VOLUMES      L**3       RATES FOR THIS TIME STEP      L**3/T
     ------------------                 ------------------------

           IN:                                      IN:
           ---                                      ---
             STORAGE =      169144.0781               STORAGE =        2825.5601
       CONSTANT HEAD =           0.0000         CONSTANT HEAD =           0.0000
               WELLS =           0.0000                 WELLS =           0.0000
     HEAD DEP BOUNDS =           0.3271       HEAD DEP BOUNDS =       9.1773E-02

            TOTAL IN =      169144.4062              TOTAL IN =        2825.6519

          OUT:                                     OUT:
          ----                                     ----
             STORAGE =           0.0000               STORAGE =           0.0000
       CONSTANT HEAD =           0.0000         CONSTANT HEAD =           0.0000
               WELLS =           0.0000                 WELLS =           0.0000
     HEAD DEP BOUNDS =      169144.4375       HEAD DEP BOUNDS =        2825.6494

           TOTAL OUT =      169144.4375             TOTAL OUT =        2825.6494

            IN - OUT =      -3.1250E-02              IN - OUT =       2.4414E-03

 PERCENT DISCREPANCY =          -0.00     PERCENT DISCREPANCY =           0.00






         TIME SUMMARY AT END OF TIME STEP   19 IN STRESS PERIOD    2
                    SECONDS     MINUTES      HOURS       DAYS        YEARS
                    -----------------------------------------------------------
   TIME STEP LENGTH  86400.      1440.0      24.000     1.00000     2.73785E-03
 STRESS PERIOD TIME 1.64160E+06  27360.      456.00      19.000     5.20192E-02
         TOTAL TIME 1.72800E+06  28800.      480.00      20.000     5.47570E-02
1
 
 SOLVING FOR HEAD 

 OUTPUT CONTROL FOR STRESS PERIOD    2   TIME STEP   20
    SAVE HEAD FOR ALL LAYERS
    SAVE DRAWDOWN FOR ALL LAYERS
    SAVE BUDGET
    PRINT HEAD FOR ALL LAYERS
    PRINT BUDGET
 UBDSV1 SAVING "         STORAGE" ON UNIT  53 AT TIME STEP 20, STRESS PERIOD   2
 UBDSV2 SAVING "   CONSTANT HEAD" ON UNIT  53 AT TIME STEP 20, STRESS PERIOD   2
 UBDSV1 SAVING "FLOW RIGHT FACE " ON UNIT  53 AT TIME STEP 20, STRESS PERIOD   2
 UBDSV1 SAVING "FLOW FRONT FACE " ON UNIT  53 AT TIME STEP 20, STRESS PERIOD   2
1
              HEAD IN LAYER   1 AT END OF TIME STEP  20 IN STRESS PERIOD    2
  ---------------------------------------------------------------------------

            1           2           3           4           5           6           7           8           9          10
 ........................................................................................................................
   1    10.00       10.00       9.999       9.993       9.965       9.849       9.438       8.215       5.295      5.5304E-02
   2    10.00       10.00       9.999       9.993       9.965       9.849       9.438       8.215       5.295      5.5304E-02
   3    10.00       10.00       9.999       9.993       9.965       9.849       9.438       8.215       5.295      5.5304E-02
   4    10.00       10.00       9.999       9.993       9.965       9.849       9.438       8.215       5.295      5.5304E-02
   5    10.00       10.00       9.999       9.993       9.965       9.849       9.438       8.215       5.295      5.5304E-02
   6    10.00       10.00       9.999       9.993       9.965       9.849       9.438       8.215       5.295      5.5304E-02
   7    10.00       10.00       9.999       9.993       9.965       9.849       9.438       8.215       5.295      5.5304E-02
   8    10.00       10.00       9.999       9.993       9.965       9.849       9.438       8.215       5.295      5.5304E-02
   9    10.00       10.00       9.999       9.993       9.965       9.849       9.438       8.215       5.295      5.5304E-02
  10    10.00       10.00       9.999       9.993       9.965       9.849       9.438       8.215       5.295      5.5304E-02

 HEAD WILL BE SAVED ON UNIT   51 AT END OF TIME STEP   20, STRESS PERIOD    2

 DRAWDOWN WILL BE SAVED ON UNIT   52 AT END OF TIME STEP   20, STRESS PERIOD    2
1
  VOLUMETRIC BUDGET FOR ENTIRE MODEL AT END OF TIME STEP   20, STRESS PERIOD   2
  ------------------------------------------------------------------------------

     CUMULATIVE VOLUMES      L**3       RATES FOR THIS TIME STEP      L**3/T
     ------------------                 ------------------------

           IN:                                      IN:
           ---                                      ---
             STORAGE =      171909.1562               STORAGE =        2765.0842
       CONSTANT HEAD =           0.0000         CONSTANT HEAD =           0.0000
               WELLS =           0.0000                 WELLS =           0.0000
     HEAD DEP BOUNDS =           0.4472       HEAD DEP BOUNDS =           0.1201

            TOTAL IN =      171909.6094              TOTAL IN =        2765.2043

          OUT:                                     OUT:
          ----                                     ----
             STORAGE =           0.0000               STORAGE =           0.0000
       CONSTANT HEAD =           0.0000         CONSTANT HEAD =           0.0000
               WELLS =           0.0000                 WELLS =           0.0000
     HEAD DEP BOUNDS =      171909.6562       HEAD DEP BOUNDS =        2765.2195

           TOTAL OUT =      171909.6562             TOTAL OUT =        2765.2195

            IN - OUT =      -4.6875E-02              IN - OUT =      -1.5137E-02

 PERCENT DISCREPANCY =          -0.00     PERCENT DISCREPANCY =          -0.00






         TIME SUMMARY AT END OF TIME STEP   20 IN STRESS PERIOD    2
                    SECONDS     MINUTES      HOURS       DAYS        YEARS
                    -----------------------------------------------------------
   TIME STEP LENGTH  86400.      1440.0      24.000     1.00000     2.73785E-03
 STRESS PERIOD TIME 1.72800E+06  28800.      480.00      20.000     5.47570E-02
         TOTAL TIME 1.81440E+06  30240.      504.00      21.000     5.74949E-02
1
 
 SOLVING FOR HEAD 

 OUTPUT CONTROL FOR STRESS PERIOD    2   TIME STEP   21
    SAVE HEAD FOR ALL LAYERS
    SAVE DRAWDOWN FOR ALL LAYERS
    SAVE BUDGET
    PRINT HEAD FOR ALL LAYERS
    PRINT BUDGET
 UBDSV1 SAVING "         STORAGE" ON UNIT  53 AT TIME STEP 21, STRESS PERIOD   2
 UBDSV2 SAVING "   CONSTANT HEAD" ON UNIT  53 AT TIME STEP 21, STRESS PERIOD   2
 UBDSV1 SAVING "FLOW RIGHT FACE " ON UNIT  53 AT TIME STEP 21, STRESS PERIOD   2
 UBDSV1 SAVING "FLOW FRONT FACE " ON UNIT  53 AT TIME STEP 21, STRESS PERIOD   2
1
              HEAD IN LAYER   1 AT END OF TIME STEP  21 IN STRESS PERIOD    2
  ---------------------------------------------------------------------------

            1           2           3           4           5           6           7           8           9          10
 ........................................................................................................................
   1    10.00       10.00       9.998       9.991       9.959       9.831       9.390       8.124       5.191      5.4165E-02
   2    10.00       10.00       9.998       9.991       9.959       9.831       9.390       8.124       5.191      5.4165E-02
   3    10.00       10.00       9.998       9.991       9.959       9.831       9.390       8.124       5.191      5.4165E-02
   4    10.00       10.00       9.998       9.991       9.959       9.831       9.390       8.124       5.191      5.4165E-02
   5    10.00       10.00       9.998       9.991       9.959       9.831       9.390       8.124       5.191      5.4165E-02
   6    10.00       10.00       9.998       9.991       9.959       9.831       9.390       8.124       5.191      5.4165E-02
   7    10.00       10.00       9.998       9.991       9.959       9.831       9.390       8.124       5.191      5.4165E-02
   8    10.00       10.00       9.998       9.991       9.959       9.831       9.390       8.124       5.191      5.4165E-02
   9    10.00       10.00       9.998       9.991       9.959       9.831       9.390       8.124       5.191      5.4165E-02
  10    10.00       10.00       9.998       9.991       9.959       9.831       9.390       8.124       5.191      5.4165E-02

 HEAD WILL BE SAVED ON UNIT   51 AT END OF TIME STEP   21, STRESS PERIOD    2

 DRAWDOWN WILL BE SAVED ON UNIT   52 AT END OF TIME STEP   21, STRESS PERIOD    2
1
  VOLUMETRIC BUDGET FOR ENTIRE MODEL AT END OF TIME STEP   21, STRESS PERIOD   2
  ------------------------------------------------------------------------------

     CUMULATIVE VOLUMES      L**3       RATES FOR THIS TIME STEP      L**3/T
     ------------------                 ------------------------

           IN:                                      IN:
           ---                                      ---
             STORAGE =      174617.2188               STORAGE =        2708.0615
       CONSTANT HEAD =           0.0000         CONSTANT HEAD =           0.0000
               WELLS =           0.0000                 WELLS =           0.0000
     HEAD DEP BOUNDS =           0.6016       HEAD DEP BOUNDS =           0.1543

            TOTAL IN =      174617.8281              TOTAL IN =        2708.2158

          OUT:                                     OUT:
          ----                                     ----
             STORAGE =           0.0000               STORAGE =           0.0000
       CONSTANT HEAD =           0.0000         CONSTANT HEAD =           0.0000
               WELLS =           0.0000                 WELLS =           0.0000
     HEAD DEP BOUNDS =      174617.8906       HEAD DEP BOUNDS =        2708.2346

           TOTAL OUT =      174617.8906             TOTAL OUT =        2708.2346

            IN - OUT =      -6.2500E-02              IN - OUT =      -1.8799E-02

 PERCENT DISCREPANCY =          -0.00     PERCENT DISCREPANCY =          -0.00






         TIME SUMMARY AT END OF TIME STEP   21 IN STRESS PERIOD    2
                    SECONDS     MINUTES      HOURS       DAYS        YEARS
                    -----------------------------------------------------------
   TIME STEP LENGTH  86400.      1440.0      24.000     1.00000     2.73785E-03
 STRESS PERIOD TIME 1.81440E+06  30240.      504.00      21.000     5.74949E-02
         TOTAL TIME 1.90080E+06  31680.      528.00      22.000     6.02327E-02
1
 
 SOLVING FOR HEAD 

 OUTPUT CONTROL FOR STRESS PERIOD    2   TIME STEP   22
    SAVE HEAD FOR ALL LAYERS
    SAVE DRAWDOWN FOR ALL LAYERS
    SAVE BUDGET
    PRINT HEAD FOR ALL LAYERS
    PRINT BUDGET
 UBDSV1 SAVING "         STORAGE" ON UNIT  53 AT TIME STEP 22, STRESS PERIOD   2
 UBDSV2 SAVING "   CONSTANT HEAD" ON UNIT  53 AT TIME STEP 22, STRESS PERIOD   2
 UBDSV1 SAVING "FLOW RIGHT FACE " ON UNIT  53 AT TIME STEP 22, STRESS PERIOD   2
 UBDSV1 SAVING "FLOW FRONT FACE " ON UNIT  53 AT TIME STEP 22, STRESS PERIOD   2
1
              HEAD IN LAYER   1 AT END OF TIME STEP  22 IN STRESS PERIOD    2
  ---------------------------------------------------------------------------

            1           2           3           4           5           6           7           8           9          10
 ........................................................................................................................
   1    10.00       10.00       9.998       9.989       9.953       9.811       9.341       8.034       5.093      5.3088E-02
   2    10.00       10.00       9.998       9.989       9.953       9.811       9.341       8.034       5.093      5.3088E-02
   3    10.00       10.00       9.998       9.989       9.953       9.811       9.341       8.034       5.093      5.3088E-02
   4    10.00       10.00       9.998       9.989       9.953       9.811       9.341       8.034       5.093      5.3088E-02
   5    10.00       10.00       9.998       9.989       9.953       9.811       9.341       8.034       5.093      5.3088E-02
   6    10.00       10.00       9.998       9.989       9.953       9.811       9.341       8.034       5.093      5.3088E-02
   7    10.00       10.00       9.998       9.989       9.953       9.811       9.341       8.034       5.093      5.3088E-02
   8    10.00       10.00       9.998       9.989       9.953       9.811       9.341       8.034       5.093      5.3088E-02
   9    10.00       10.00       9.998       9.989       9.953       9.811       9.341       8.034       5.093      5.3088E-02
  10    10.00       10.00       9.998       9.989       9.953       9.811       9.341       8.034       5.093      5.3088E-02

 HEAD WILL BE SAVED ON UNIT   51 AT END OF TIME STEP   22, STRESS PERIOD    2

 DRAWDOWN WILL BE SAVED ON UNIT   52 AT END OF TIME STEP   22, STRESS PERIOD    2
1
  VOLUMETRIC BUDGET FOR ENTIRE MODEL AT END OF TIME STEP   22, STRESS PERIOD   2
  ------------------------------------------------------------------------------

     CUMULATIVE VOLUMES      L**3       RATES FOR THIS TIME STEP      L**3/T
     ------------------                 ------------------------

           IN:                                      IN:
           ---                                      ---
             STORAGE =      177271.3750               STORAGE =        2654.1550
       CONSTANT HEAD =           0.0000         CONSTANT HEAD =           0.0000
               WELLS =           0.0000                 WELLS =           0.0000
     HEAD DEP BOUNDS =           0.7976       HEAD DEP BOUNDS =           0.1960

            TOTAL IN =      177272.1719              TOTAL IN =        2654.3511

          OUT:                                     OUT:
          ----                                     ----
             STORAGE =           0.0000               STORAGE =           0.0000
       CONSTANT HEAD =           0.0000         CONSTANT HEAD =           0.0000
               WELLS =           0.0000                 WELLS =           0.0000
     HEAD DEP BOUNDS =      177272.2812       HEAD DEP BOUNDS =        2654.3928

           TOTAL OUT =      177272.2812             TOTAL OUT =        2654.3928

            IN - OUT =          -0.1094              IN - OUT =      -4.1748E-02

 PERCENT DISCREPANCY =          -0.00     PERCENT DISCREPANCY =          -0.00






         TIME SUMMARY AT END OF TIME STEP   22 IN STRESS PERIOD    2
                    SECONDS     MINUTES      HOURS       DAYS        YEARS
                    -----------------------------------------------------------
   TIME STEP LENGTH  86400.      1440.0      24.000     1.00000     2.73785E-03
 STRESS PERIOD TIME 1.90080E+06  31680.      528.00      22.000     6.02327E-02
         TOTAL TIME 1.98720E+06  33120.      552.00      23.000     6.29706E-02
1
 
 SOLVING FOR HEAD 

 OUTPUT CONTROL FOR STRESS PERIOD    2   TIME STEP   23
    SAVE HEAD FOR ALL LAYERS
    SAVE DRAWDOWN FOR ALL LAYERS
    SAVE BUDGET
    PRINT HEAD FOR ALL LAYERS
    PRINT BUDGET
 UBDSV1 SAVING "         STORAGE" ON UNIT  53 AT TIME STEP 23, STRESS PERIOD   2
 UBDSV2 SAVING "   CONSTANT HEAD" ON UNIT  53 AT TIME STEP 23, STRESS PERIOD   2
 UBDSV1 SAVING "FLOW RIGHT FACE " ON UNIT  53 AT TIME STEP 23, STRESS PERIOD   2
 UBDSV1 SAVING "FLOW FRONT FACE " ON UNIT  53 AT TIME STEP 23, STRESS PERIOD   2
1
              HEAD IN LAYER   1 AT END OF TIME STEP  23 IN STRESS PERIOD    2
  ---------------------------------------------------------------------------

            1           2           3           4           5           6           7           8           9          10
 ........................................................................................................................
   1    10.00       10.00       9.997       9.988       9.946       9.791       9.292       7.947       5.000      5.2069E-02
   2    10.00       10.00       9.997       9.988       9.946       9.791       9.292       7.947       5.000      5.2069E-02
   3    10.00       10.00       9.997       9.988       9.946       9.791       9.292       7.947       5.000      5.2069E-02
   4    10.00       10.00       9.997       9.988       9.946       9.791       9.292       7.947       5.000      5.2069E-02
   5    10.00       10.00       9.997       9.988       9.946       9.791       9.292       7.947       5.000      5.2069E-02
   6    10.00       10.00       9.997       9.988       9.946       9.791       9.292       7.947       5.000      5.2069E-02
   7    10.00       10.00       9.997       9.988       9.946       9.791       9.292       7.947       5.000      5.2069E-02
   8    10.00       10.00       9.997       9.988       9.946       9.791       9.292       7.947       5.000      5.2069E-02
   9    10.00       10.00       9.997       9.988       9.946       9.791       9.292       7.947       5.000      5.2069E-02
  10    10.00       10.00       9.997       9.988       9.946       9.791       9.292       7.947       5.000      5.2069E-02

 HEAD WILL BE SAVED ON UNIT   51 AT END OF TIME STEP   23, STRESS PERIOD    2

 DRAWDOWN WILL BE SAVED ON UNIT   52 AT END OF TIME STEP   23, STRESS PERIOD    2
1
  VOLUMETRIC BUDGET FOR ENTIRE MODEL AT END OF TIME STEP   23, STRESS PERIOD   2
  ------------------------------------------------------------------------------

     CUMULATIVE VOLUMES      L**3       RATES FOR THIS TIME STEP      L**3/T
     ------------------                 ------------------------

           IN:                                      IN:
           ---                                      ---
             STORAGE =      179874.5469               STORAGE =        2603.1775
       CONSTANT HEAD =           0.0000         CONSTANT HEAD =           0.0000
               WELLS =           0.0000                 WELLS =           0.0000
     HEAD DEP BOUNDS =           1.0436       HEAD DEP BOUNDS =           0.2460

            TOTAL IN =      179875.5938              TOTAL IN =        2603.4236

          OUT:                                     OUT:
          ----                                     ----
             STORAGE =           0.0000               STORAGE =           0.0000
       CONSTANT HEAD =           0.0000         CONSTANT HEAD =           0.0000
               WELLS =           0.0000                 WELLS =           0.0000
     HEAD DEP BOUNDS =      179875.7188       HEAD DEP BOUNDS =        2603.4353

           TOTAL OUT =      179875.7188             TOTAL OUT =        2603.4353

            IN - OUT =          -0.1250              IN - OUT =      -1.1719E-02

 PERCENT DISCREPANCY =          -0.00     PERCENT DISCREPANCY =          -0.00






         TIME SUMMARY AT END OF TIME STEP   23 IN STRESS PERIOD    2
                    SECONDS     MINUTES      HOURS       DAYS        YEARS
                    -----------------------------------------------------------
   TIME STEP LENGTH  86400.      1440.0      24.000     1.00000     2.73785E-03
 STRESS PERIOD TIME 1.98720E+06  33120.      552.00      23.000     6.29706E-02
         TOTAL TIME 2.07360E+06  34560.      576.00      24.000     6.57084E-02
1
 
 SOLVING FOR HEAD 

 OUTPUT CONTROL FOR STRESS PERIOD    2   TIME STEP   24
    SAVE HEAD FOR ALL LAYERS
    SAVE DRAWDOWN FOR ALL LAYERS
    SAVE BUDGET
    PRINT HEAD FOR ALL LAYERS
    PRINT BUDGET
 UBDSV1 SAVING "         STORAGE" ON UNIT  53 AT TIME STEP 24, STRESS PERIOD   2
 UBDSV2 SAVING "   CONSTANT HEAD" ON UNIT  53 AT TIME STEP 24, STRESS PERIOD   2
 UBDSV1 SAVING "FLOW RIGHT FACE " ON UNIT  53 AT TIME STEP 24, STRESS PERIOD   2
 UBDSV1 SAVING "FLOW FRONT FACE " ON UNIT  53 AT TIME STEP 24, STRESS PERIOD   2
1
              HEAD IN LAYER   1 AT END OF TIME STEP  24 IN STRESS PERIOD    2
  ---------------------------------------------------------------------------

            1           2           3           4           5           6           7           8           9          10
 ........................................................................................................................
   1    10.00       9.999       9.997       9.985       9.939       9.770       9.243       7.861       4.912      5.1103E-02
   2    10.00       9.999       9.997       9.985       9.939       9.770       9.243       7.861       4.912      5.1103E-02
   3    10.00       9.999       9.997       9.985       9.939       9.770       9.243       7.861       4.912      5.1103E-02
   4    10.00       9.999       9.997       9.985       9.939       9.770       9.243       7.861       4.912      5.1103E-02
   5    10.00       9.999       9.997       9.985       9.939       9.770       9.243       7.861       4.912      5.1103E-02
   6    10.00       9.999       9.997       9.985       9.939       9.770       9.243       7.861       4.912      5.1103E-02
   7    10.00       9.999       9.997       9.985       9.939       9.770       9.243       7.861       4.912      5.1103E-02
   8    10.00       9.999       9.997       9.985       9.939       9.770       9.243       7.861       4.912      5.1103E-02
   9    10.00       9.999       9.997       9.985       9.939       9.770       9.243       7.861       4.912      5.1103E-02
  10    10.00       9.999       9.997       9.985       9.939       9.770       9.243       7.861       4.912      5.1103E-02

 HEAD WILL BE SAVED ON UNIT   51 AT END OF TIME STEP   24, STRESS PERIOD    2

 DRAWDOWN WILL BE SAVED ON UNIT   52 AT END OF TIME STEP   24, STRESS PERIOD    2
1
  VOLUMETRIC BUDGET FOR ENTIRE MODEL AT END OF TIME STEP   24, STRESS PERIOD   2
  ------------------------------------------------------------------------------

     CUMULATIVE VOLUMES      L**3       RATES FOR THIS TIME STEP      L**3/T
     ------------------                 ------------------------

           IN:                                      IN:
           ---                                      ---
             STORAGE =      182429.3125               STORAGE =        2554.7678
       CONSTANT HEAD =           0.0000         CONSTANT HEAD =           0.0000
               WELLS =           0.0000                 WELLS =           0.0000
     HEAD DEP BOUNDS =           1.3487       HEAD DEP BOUNDS =           0.3051

            TOTAL IN =      182430.6562              TOTAL IN =        2555.0730

          OUT:                                     OUT:
          ----                                     ----
             STORAGE =           0.0000               STORAGE =           0.0000
       CONSTANT HEAD =           0.0000         CONSTANT HEAD =           0.0000
               WELLS =           0.0000                 WELLS =           0.0000
     HEAD DEP BOUNDS =      182430.8438       HEAD DEP BOUNDS =        2555.1309

           TOTAL OUT =      182430.8438             TOTAL OUT =        2555.1309

            IN - OUT =          -0.1875              IN - OUT =      -5.7861E-02

 PERCENT DISCREPANCY =          -0.00     PERCENT DISCREPANCY =          -0.00






         TIME SUMMARY AT END OF TIME STEP   24 IN STRESS PERIOD    2
                    SECONDS     MINUTES      HOURS       DAYS        YEARS
                    -----------------------------------------------------------
   TIME STEP LENGTH  86400.      1440.0      24.000     1.00000     2.73785E-03
 STRESS PERIOD TIME 2.07360E+06  34560.      576.00      24.000     6.57084E-02
         TOTAL TIME 2.16000E+06  36000.      600.00      25.000     6.84463E-02
1
 
 SOLVING FOR HEAD 

 OUTPUT CONTROL FOR STRESS PERIOD    2   TIME STEP   25
    SAVE HEAD FOR ALL LAYERS
    SAVE DRAWDOWN FOR ALL LAYERS
    SAVE BUDGET
    PRINT HEAD FOR ALL LAYERS
    PRINT BUDGET
 UBDSV1 SAVING "         STORAGE" ON UNIT  53 AT TIME STEP 25, STRESS PERIOD   2
 UBDSV2 SAVING "   CONSTANT HEAD" ON UNIT  53 AT TIME STEP 25, STRESS PERIOD   2
 UBDSV1 SAVING "FLOW RIGHT FACE " ON UNIT  53 AT TIME STEP 25, STRESS PERIOD   2
 UBDSV1 SAVING "FLOW FRONT FACE " ON UNIT  53 AT TIME STEP 25, STRESS PERIOD   2
1
              HEAD IN LAYER   1 AT END OF TIME STEP  25 IN STRESS PERIOD    2
  ---------------------------------------------------------------------------

            1           2           3           4           5           6           7           8           9          10
 ........................................................................................................................
   1    10.00       9.999       9.996       9.983       9.931       9.748       9.193       7.778       4.828      5.0186E-02
   2    10.00       9.999       9.996       9.983       9.931       9.748       9.193       7.778       4.828      5.0186E-02
   3    10.00       9.999       9.996       9.983       9.931       9.748       9.193       7.778       4.828      5.0186E-02
   4    10.00       9.999       9.996       9.983       9.931       9.748       9.193       7.778       4.828      5.0186E-02
   5    10.00       9.999       9.996       9.983       9.931       9.748       9.193       7.778       4.828      5.0186E-02
   6    10.00       9.999       9.996       9.983       9.931       9.748       9.193       7.778       4.828      5.0186E-02
   7    10.00       9.999       9.996       9.983       9.931       9.748       9.193       7.778       4.828      5.0186E-02
   8    10.00       9.999       9.996       9.983       9.931       9.748       9.193       7.778       4.828      5.0186E-02
   9    10.00       9.999       9.996       9.983       9.931       9.748       9.193       7.778       4.828      5.0186E-02
  10    10.00       9.999       9.996       9.983       9.931       9.748       9.193       7.778       4.828      5.0186E-02

 HEAD WILL BE SAVED ON UNIT   51 AT END OF TIME STEP   25, STRESS PERIOD    2

 DRAWDOWN WILL BE SAVED ON UNIT   52 AT END OF TIME STEP   25, STRESS PERIOD    2
1
  VOLUMETRIC BUDGET FOR ENTIRE MODEL AT END OF TIME STEP   25, STRESS PERIOD   2
  ------------------------------------------------------------------------------

     CUMULATIVE VOLUMES      L**3       RATES FOR THIS TIME STEP      L**3/T
     ------------------                 ------------------------

           IN:                                      IN:
           ---                                      ---
             STORAGE =      184938.1875               STORAGE =        2508.8782
       CONSTANT HEAD =           0.0000         CONSTANT HEAD =           0.0000
               WELLS =           0.0000                 WELLS =           0.0000
     HEAD DEP BOUNDS =           1.7894       HEAD DEP BOUNDS =           0.4407

            TOTAL IN =      184939.9844              TOTAL IN =        2509.3188

          OUT:                                     OUT:
          ----                                     ----
             STORAGE =           0.0000               STORAGE =           0.0000
       CONSTANT HEAD =           0.0000         CONSTANT HEAD =           0.0000
               WELLS =           0.0000                 WELLS =           0.0000
     HEAD DEP BOUNDS =      184940.1250       HEAD DEP BOUNDS =        2509.2786

           TOTAL OUT =      184940.1250             TOTAL OUT =        2509.2786

            IN - OUT =          -0.1406              IN - OUT =       4.0283E-02

 PERCENT DISCREPANCY =          -0.00     PERCENT DISCREPANCY =           0.00






         TIME SUMMARY AT END OF TIME STEP   25 IN STRESS PERIOD    2
                    SECONDS     MINUTES      HOURS       DAYS        YEARS
                    -----------------------------------------------------------
   TIME STEP LENGTH  86400.      1440.0      24.000     1.00000     2.73785E-03
 STRESS PERIOD TIME 2.16000E+06  36000.      600.00      25.000     6.84463E-02
         TOTAL TIME 2.24640E+06  37440.      624.00      26.000     7.11841E-02
1
 
 SOLVING FOR HEAD 

 OUTPUT CONTROL FOR STRESS PERIOD    2   TIME STEP   26
    SAVE HEAD FOR ALL LAYERS
    SAVE DRAWDOWN FOR ALL LAYERS
    SAVE BUDGET
    PRINT HEAD FOR ALL LAYERS
    PRINT BUDGET
 UBDSV1 SAVING "         STORAGE" ON UNIT  53 AT TIME STEP 26, STRESS PERIOD   2
 UBDSV2 SAVING "   CONSTANT HEAD" ON UNIT  53 AT TIME STEP 26, STRESS PERIOD   2
 UBDSV1 SAVING "FLOW RIGHT FACE " ON UNIT  53 AT TIME STEP 26, STRESS PERIOD   2
 UBDSV1 SAVING "FLOW FRONT FACE " ON UNIT  53 AT TIME STEP 26, STRESS PERIOD   2
1
              HEAD IN LAYER   1 AT END OF TIME STEP  26 IN STRESS PERIOD    2
  ---------------------------------------------------------------------------

            1           2           3           4           5           6           7           8           9          10
 ........................................................................................................................
   1    10.00       9.999       9.996       9.981       9.922       9.725       9.143       7.697       4.748      4.9314E-02
   2    10.00       9.999       9.996       9.981       9.922       9.725       9.143       7.697       4.748      4.9314E-02
   3    10.00       9.999       9.996       9.981       9.922       9.725       9.143       7.697       4.748      4.9314E-02
   4    10.00       9.999       9.996       9.981       9.922       9.725       9.143       7.697       4.748      4.9314E-02
   5    10.00       9.999       9.996       9.981       9.922       9.725       9.143       7.697       4.748      4.9314E-02
   6    10.00       9.999       9.996       9.981       9.922       9.725       9.143       7.697       4.748      4.9314E-02
   7    10.00       9.999       9.996       9.981       9.922       9.725       9.143       7.697       4.748      4.9314E-02
   8    10.00       9.999       9.996       9.981       9.922       9.725       9.143       7.697       4.748      4.9314E-02
   9    10.00       9.999       9.996       9.981       9.922       9.725       9.143       7.697       4.748      4.9314E-02
  10    10.00       9.999       9.996       9.981       9.922       9.725       9.143       7.697       4.748      4.9314E-02

 HEAD WILL BE SAVED ON UNIT   51 AT END OF TIME STEP   26, STRESS PERIOD    2

 DRAWDOWN WILL BE SAVED ON UNIT   52 AT END OF TIME STEP   26, STRESS PERIOD    2
1
  VOLUMETRIC BUDGET FOR ENTIRE MODEL AT END OF TIME STEP   26, STRESS PERIOD   2
  ------------------------------------------------------------------------------

     CUMULATIVE VOLUMES      L**3       RATES FOR THIS TIME STEP      L**3/T
     ------------------                 ------------------------

           IN:                                      IN:
           ---                                      ---
             STORAGE =      187403.3594               STORAGE =        2465.1687
       CONSTANT HEAD =           0.0000         CONSTANT HEAD =           0.0000
               WELLS =           0.0000                 WELLS =           0.0000
     HEAD DEP BOUNDS =           2.3112       HEAD DEP BOUNDS =           0.5218

            TOTAL IN =      187405.6719              TOTAL IN =        2465.6904

          OUT:                                     OUT:
          ----                                     ----
             STORAGE =           0.0000               STORAGE =           0.0000
       CONSTANT HEAD =           0.0000         CONSTANT HEAD =           0.0000
               WELLS =           0.0000                 WELLS =           0.0000
     HEAD DEP BOUNDS =      187405.8125       HEAD DEP BOUNDS =        2465.6831

           TOTAL OUT =      187405.8125             TOTAL OUT =        2465.6831

            IN - OUT =          -0.1406              IN - OUT =       7.3242E-03

 PERCENT DISCREPANCY =          -0.00     PERCENT DISCREPANCY =           0.00






         TIME SUMMARY AT END OF TIME STEP   26 IN STRESS PERIOD    2
                    SECONDS     MINUTES      HOURS       DAYS        YEARS
                    -----------------------------------------------------------
   TIME STEP LENGTH  86400.      1440.0      24.000     1.00000     2.73785E-03
 STRESS PERIOD TIME 2.24640E+06  37440.      624.00      26.000     7.11841E-02
         TOTAL TIME 2.33280E+06  38880.      648.00      27.000     7.39220E-02
1
 
 SOLVING FOR HEAD 

 OUTPUT CONTROL FOR STRESS PERIOD    2   TIME STEP   27
    SAVE HEAD FOR ALL LAYERS
    SAVE DRAWDOWN FOR ALL LAYERS
    SAVE BUDGET
    PRINT HEAD FOR ALL LAYERS
    PRINT BUDGET
 UBDSV1 SAVING "         STORAGE" ON UNIT  53 AT TIME STEP 27, STRESS PERIOD   2
 UBDSV2 SAVING "   CONSTANT HEAD" ON UNIT  53 AT TIME STEP 27, STRESS PERIOD   2
 UBDSV1 SAVING "FLOW RIGHT FACE " ON UNIT  53 AT TIME STEP 27, STRESS PERIOD   2
 UBDSV1 SAVING "FLOW FRONT FACE " ON UNIT  53 AT TIME STEP 27, STRESS PERIOD   2
1
              HEAD IN LAYER   1 AT END OF TIME STEP  27 IN STRESS PERIOD    2
  ---------------------------------------------------------------------------

            1           2           3           4           5           6           7           8           9          10
 ........................................................................................................................
   1    10.00       9.999       9.995       9.978       9.914       9.701       9.093       7.618       4.671      4.8483E-02
   2    10.00       9.999       9.995       9.978       9.914       9.701       9.093       7.618       4.671      4.8483E-02
   3    10.00       9.999       9.995       9.978       9.914       9.701       9.093       7.618       4.671      4.8483E-02
   4    10.00       9.999       9.995       9.978       9.914       9.701       9.093       7.618       4.671      4.8483E-02
   5    10.00       9.999       9.995       9.978       9.914       9.701       9.093       7.618       4.671      4.8483E-02
   6    10.00       9.999       9.995       9.978       9.914       9.701       9.093       7.618       4.671      4.8483E-02
   7    10.00       9.999       9.995       9.978       9.914       9.701       9.093       7.618       4.671      4.8483E-02
   8    10.00       9.999       9.995       9.978       9.914       9.701       9.093       7.618       4.671      4.8483E-02
   9    10.00       9.999       9.995       9.978       9.914       9.701       9.093       7.618       4.671      4.8483E-02
  10    10.00       9.999       9.995       9.978       9.914       9.701       9.093       7.618       4.671      4.8483E-02

 HEAD WILL BE SAVED ON UNIT   51 AT END OF TIME STEP   27, STRESS PERIOD    2

 DRAWDOWN WILL BE SAVED ON UNIT   52 AT END OF TIME STEP   27, STRESS PERIOD    2
1
  VOLUMETRIC BUDGET FOR ENTIRE MODEL AT END OF TIME STEP   27, STRESS PERIOD   2
  ------------------------------------------------------------------------------

     CUMULATIVE VOLUMES      L**3       RATES FOR THIS TIME STEP      L**3/T
     ------------------                 ------------------------

           IN:                                      IN:
           ---                                      ---
             STORAGE =      189826.9062               STORAGE =        2423.5417
       CONSTANT HEAD =           0.0000         CONSTANT HEAD =           0.0000
               WELLS =           0.0000                 WELLS =           0.0000
     HEAD DEP BOUNDS =           2.9268       HEAD DEP BOUNDS =           0.6156

            TOTAL IN =      189829.8281              TOTAL IN =        2424.1572

          OUT:                                     OUT:
          ----                                     ----
             STORAGE =           0.0000               STORAGE =           0.0000
       CONSTANT HEAD =           0.0000         CONSTANT HEAD =           0.0000
               WELLS =           0.0000                 WELLS =           0.0000
     HEAD DEP BOUNDS =      189829.9844       HEAD DEP BOUNDS =        2424.1748

           TOTAL OUT =      189829.9844             TOTAL OUT =        2424.1748

            IN - OUT =          -0.1562              IN - OUT =      -1.7578E-02

 PERCENT DISCREPANCY =          -0.00     PERCENT DISCREPANCY =          -0.00






         TIME SUMMARY AT END OF TIME STEP   27 IN STRESS PERIOD    2
                    SECONDS     MINUTES      HOURS       DAYS        YEARS
                    -----------------------------------------------------------
   TIME STEP LENGTH  86400.      1440.0      24.000     1.00000     2.73785E-03
 STRESS PERIOD TIME 2.33280E+06  38880.      648.00      27.000     7.39220E-02
         TOTAL TIME 2.41920E+06  40320.      672.00      28.000     7.66598E-02
1
 
 SOLVING FOR HEAD 

 OUTPUT CONTROL FOR STRESS PERIOD    2   TIME STEP   28
    SAVE HEAD FOR ALL LAYERS
    SAVE DRAWDOWN FOR ALL LAYERS
    SAVE BUDGET
    PRINT HEAD FOR ALL LAYERS
    PRINT BUDGET
 UBDSV1 SAVING "         STORAGE" ON UNIT  53 AT TIME STEP 28, STRESS PERIOD   2
 UBDSV2 SAVING "   CONSTANT HEAD" ON UNIT  53 AT TIME STEP 28, STRESS PERIOD   2
 UBDSV1 SAVING "FLOW RIGHT FACE " ON UNIT  53 AT TIME STEP 28, STRESS PERIOD   2
 UBDSV1 SAVING "FLOW FRONT FACE " ON UNIT  53 AT TIME STEP 28, STRESS PERIOD   2
1
              HEAD IN LAYER   1 AT END OF TIME STEP  28 IN STRESS PERIOD    2
  ---------------------------------------------------------------------------

            1           2           3           4           5           6           7           8           9          10
 ........................................................................................................................
   1    10.00       9.999       9.994       9.975       9.904       9.677       9.043       7.540       4.599      4.7692E-02
   2    10.00       9.999       9.994       9.975       9.904       9.677       9.043       7.540       4.599      4.7692E-02
   3    10.00       9.999       9.994       9.975       9.904       9.677       9.043       7.540       4.599      4.7692E-02
   4    10.00       9.999       9.994       9.975       9.904       9.677       9.043       7.540       4.599      4.7692E-02
   5    10.00       9.999       9.994       9.975       9.904       9.677       9.043       7.540       4.599      4.7692E-02
   6    10.00       9.999       9.994       9.975       9.904       9.677       9.043       7.540       4.599      4.7692E-02
   7    10.00       9.999       9.994       9.975       9.904       9.677       9.043       7.540       4.599      4.7692E-02
   8    10.00       9.999       9.994       9.975       9.904       9.677       9.043       7.540       4.599      4.7692E-02
   9    10.00       9.999       9.994       9.975       9.904       9.677       9.043       7.540       4.599      4.7692E-02
  10    10.00       9.999       9.994       9.975       9.904       9.677       9.043       7.540       4.599      4.7692E-02

 HEAD WILL BE SAVED ON UNIT   51 AT END OF TIME STEP   28, STRESS PERIOD    2

 DRAWDOWN WILL BE SAVED ON UNIT   52 AT END OF TIME STEP   28, STRESS PERIOD    2
1
  VOLUMETRIC BUDGET FOR ENTIRE MODEL AT END OF TIME STEP   28, STRESS PERIOD   2
  ------------------------------------------------------------------------------

     CUMULATIVE VOLUMES      L**3       RATES FOR THIS TIME STEP      L**3/T
     ------------------                 ------------------------

           IN:                                      IN:
           ---                                      ---
             STORAGE =      192210.7500               STORAGE =        2383.8516
       CONSTANT HEAD =           0.0000         CONSTANT HEAD =           0.0000
               WELLS =           0.0000                 WELLS =           0.0000
     HEAD DEP BOUNDS =           3.6497       HEAD DEP BOUNDS =           0.7229

            TOTAL IN =      192214.4062              TOTAL IN =        2384.5745

          OUT:                                     OUT:
          ----                                     ----
             STORAGE =           0.0000               STORAGE =           0.0000
       CONSTANT HEAD =           0.0000         CONSTANT HEAD =           0.0000
               WELLS =           0.0000                 WELLS =           0.0000
     HEAD DEP BOUNDS =      192214.5938       HEAD DEP BOUNDS =        2384.6042

           TOTAL OUT =      192214.5938             TOTAL OUT =        2384.6042

            IN - OUT =          -0.1875              IN - OUT =      -2.9785E-02

 PERCENT DISCREPANCY =          -0.00     PERCENT DISCREPANCY =          -0.00






         TIME SUMMARY AT END OF TIME STEP   28 IN STRESS PERIOD    2
                    SECONDS     MINUTES      HOURS       DAYS        YEARS
                    -----------------------------------------------------------
   TIME STEP LENGTH  86400.      1440.0      24.000     1.00000     2.73785E-03
 STRESS PERIOD TIME 2.41920E+06  40320.      672.00      28.000     7.66598E-02
         TOTAL TIME 2.50560E+06  41760.      696.00      29.000     7.93977E-02
1
 
 SOLVING FOR HEAD 

 OUTPUT CONTROL FOR STRESS PERIOD    2   TIME STEP   29
    SAVE HEAD FOR ALL LAYERS
    SAVE DRAWDOWN FOR ALL LAYERS
    SAVE BUDGET
    PRINT HEAD FOR ALL LAYERS
    PRINT BUDGET
 UBDSV1 SAVING "         STORAGE" ON UNIT  53 AT TIME STEP 29, STRESS PERIOD   2
 UBDSV2 SAVING "   CONSTANT HEAD" ON UNIT  53 AT TIME STEP 29, STRESS PERIOD   2
 UBDSV1 SAVING "FLOW RIGHT FACE " ON UNIT  53 AT TIME STEP 29, STRESS PERIOD   2
 UBDSV1 SAVING "FLOW FRONT FACE " ON UNIT  53 AT TIME STEP 29, STRESS PERIOD   2
1
              HEAD IN LAYER   1 AT END OF TIME STEP  29 IN STRESS PERIOD    2
  ---------------------------------------------------------------------------

            1           2           3           4           5           6           7           8           9          10
 ........................................................................................................................
   1    10.00       9.998       9.993       9.971       9.894       9.653       8.993       7.465       4.529      4.6937E-02
   2    10.00       9.998       9.993       9.971       9.894       9.653       8.993       7.465       4.529      4.6937E-02
   3    10.00       9.998       9.993       9.971       9.894       9.653       8.993       7.465       4.529      4.6937E-02
   4    10.00       9.998       9.993       9.971       9.894       9.653       8.993       7.465       4.529      4.6937E-02
   5    10.00       9.998       9.993       9.971       9.894       9.653       8.993       7.465       4.529      4.6937E-02
   6    10.00       9.998       9.993       9.971       9.894       9.653       8.993       7.465       4.529      4.6937E-02
   7    10.00       9.998       9.993       9.971       9.894       9.653       8.993       7.465       4.529      4.6937E-02
   8    10.00       9.998       9.993       9.971       9.894       9.653       8.993       7.465       4.529      4.6937E-02
   9    10.00       9.998       9.993       9.971       9.894       9.653       8.993       7.465       4.529      4.6937E-02
  10    10.00       9.998       9.993       9.971       9.894       9.653       8.993       7.465       4.529      4.6937E-02

 HEAD WILL BE SAVED ON UNIT   51 AT END OF TIME STEP   29, STRESS PERIOD    2

 DRAWDOWN WILL BE SAVED ON UNIT   52 AT END OF TIME STEP   29, STRESS PERIOD    2
1
  VOLUMETRIC BUDGET FOR ENTIRE MODEL AT END OF TIME STEP   29, STRESS PERIOD   2
  ------------------------------------------------------------------------------

     CUMULATIVE VOLUMES      L**3       RATES FOR THIS TIME STEP      L**3/T
     ------------------                 ------------------------

           IN:                                      IN:
           ---                                      ---
             STORAGE =      194556.7031               STORAGE =        2345.9580
       CONSTANT HEAD =           0.0000         CONSTANT HEAD =           0.0000
               WELLS =           0.0000                 WELLS =           0.0000
     HEAD DEP BOUNDS =           4.5611       HEAD DEP BOUNDS =           0.9114

            TOTAL IN =      194561.2656              TOTAL IN =        2346.8694

          OUT:                                     OUT:
          ----                                     ----
             STORAGE =           0.0000               STORAGE =           0.0000
       CONSTANT HEAD =           0.0000         CONSTANT HEAD =           0.0000
               WELLS =           0.0000                 WELLS =           0.0000
     HEAD DEP BOUNDS =      194561.4219       HEAD DEP BOUNDS =        2346.8340

           TOTAL OUT =      194561.4219             TOTAL OUT =        2346.8340

            IN - OUT =          -0.1562              IN - OUT =       3.5400E-02

 PERCENT DISCREPANCY =          -0.00     PERCENT DISCREPANCY =           0.00






         TIME SUMMARY AT END OF TIME STEP   29 IN STRESS PERIOD    2
                    SECONDS     MINUTES      HOURS       DAYS        YEARS
                    -----------------------------------------------------------
   TIME STEP LENGTH  86400.      1440.0      24.000     1.00000     2.73785E-03
 STRESS PERIOD TIME 2.50560E+06  41760.      696.00      29.000     7.93977E-02
         TOTAL TIME 2.59200E+06  43200.      720.00      30.000     8.21355E-02
1
 
 SOLVING FOR HEAD 

 OUTPUT CONTROL FOR STRESS PERIOD    2   TIME STEP   30
    SAVE HEAD FOR ALL LAYERS
    SAVE DRAWDOWN FOR ALL LAYERS
    SAVE BUDGET
    PRINT HEAD FOR ALL LAYERS
    PRINT BUDGET
 UBDSV1 SAVING "         STORAGE" ON UNIT  53 AT TIME STEP 30, STRESS PERIOD   2
 UBDSV2 SAVING "   CONSTANT HEAD" ON UNIT  53 AT TIME STEP 30, STRESS PERIOD   2
 UBDSV1 SAVING "FLOW RIGHT FACE " ON UNIT  53 AT TIME STEP 30, STRESS PERIOD   2
 UBDSV1 SAVING "FLOW FRONT FACE " ON UNIT  53 AT TIME STEP 30, STRESS PERIOD   2
1
              HEAD IN LAYER   1 AT END OF TIME STEP  30 IN STRESS PERIOD    2
  ---------------------------------------------------------------------------

            1           2           3           4           5           6           7           8           9          10
 ........................................................................................................................
   1    10.00       9.998       9.992       9.968       9.884       9.627       8.944       7.392       4.462      4.6215E-02
   2    10.00       9.998       9.992       9.968       9.884       9.627       8.944       7.392       4.462      4.6215E-02
   3    10.00       9.998       9.992       9.968       9.884       9.627       8.944       7.392       4.462      4.6215E-02
   4    10.00       9.998       9.992       9.968       9.884       9.627       8.944       7.392       4.462      4.6215E-02
   5    10.00       9.998       9.992       9.968       9.884       9.627       8.944       7.392       4.462      4.6215E-02
   6    10.00       9.998       9.992       9.968       9.884       9.627       8.944       7.392       4.462      4.6215E-02
   7    10.00       9.998       9.992       9.968       9.884       9.627       8.944       7.392       4.462      4.6215E-02
   8    10.00       9.998       9.992       9.968       9.884       9.627       8.944       7.392       4.462      4.6215E-02
   9    10.00       9.998       9.992       9.968       9.884       9.627       8.944       7.392       4.462      4.6215E-02
  10    10.00       9.998       9.992       9.968       9.884       9.627       8.944       7.392       4.462      4.6215E-02

 HEAD WILL BE SAVED ON UNIT   51 AT END OF TIME STEP   30, STRESS PERIOD    2

 DRAWDOWN WILL BE SAVED ON UNIT   52 AT END OF TIME STEP   30, STRESS PERIOD    2
1
  VOLUMETRIC BUDGET FOR ENTIRE MODEL AT END OF TIME STEP   30, STRESS PERIOD   2
  ------------------------------------------------------------------------------

     CUMULATIVE VOLUMES      L**3       RATES FOR THIS TIME STEP      L**3/T
     ------------------                 ------------------------

           IN:                                      IN:
           ---                                      ---
             STORAGE =      196866.3750               STORAGE =        2309.6697
       CONSTANT HEAD =           0.0000         CONSTANT HEAD =           0.0000
               WELLS =           0.0000                 WELLS =           0.0000
     HEAD DEP BOUNDS =           5.6107       HEAD DEP BOUNDS =           1.0496

            TOTAL IN =      196871.9844              TOTAL IN =        2310.7192

          OUT:                                     OUT:
          ----                                     ----
             STORAGE =           0.0000               STORAGE =           0.0000
       CONSTANT HEAD =           0.0000         CONSTANT HEAD =           0.0000
               WELLS =           0.0000                 WELLS =           0.0000
     HEAD DEP BOUNDS =      196872.1562       HEAD DEP BOUNDS =        2310.7280

           TOTAL OUT =      196872.1562             TOTAL OUT =        2310.7280

            IN - OUT =          -0.1719              IN - OUT =      -8.7891E-03

 PERCENT DISCREPANCY =          -0.00     PERCENT DISCREPANCY =          -0.00






         TIME SUMMARY AT END OF TIME STEP   30 IN STRESS PERIOD    2
                    SECONDS     MINUTES      HOURS       DAYS        YEARS
                    -----------------------------------------------------------
   TIME STEP LENGTH  86400.      1440.0      24.000     1.00000     2.73785E-03
 STRESS PERIOD TIME 2.59200E+06  43200.      720.00      30.000     8.21355E-02
         TOTAL TIME 2.67840E+06  44640.      744.00      31.000     8.48734E-02
1
 
 SOLVING FOR HEAD 

 OUTPUT CONTROL FOR STRESS PERIOD    2   TIME STEP   31
    SAVE HEAD FOR ALL LAYERS
    SAVE DRAWDOWN FOR ALL LAYERS
    SAVE BUDGET
    PRINT HEAD FOR ALL LAYERS
    PRINT BUDGET
 UBDSV1 SAVING "         STORAGE" ON UNIT  53 AT TIME STEP 31, STRESS PERIOD   2
 UBDSV2 SAVING "   CONSTANT HEAD" ON UNIT  53 AT TIME STEP 31, STRESS PERIOD   2
 UBDSV1 SAVING "FLOW RIGHT FACE " ON UNIT  53 AT TIME STEP 31, STRESS PERIOD   2
 UBDSV1 SAVING "FLOW FRONT FACE " ON UNIT  53 AT TIME STEP 31, STRESS PERIOD   2
1
              HEAD IN LAYER   1 AT END OF TIME STEP  31 IN STRESS PERIOD    2
  ---------------------------------------------------------------------------

            1           2           3           4           5           6           7           8           9          10
 ........................................................................................................................
   1    10.00       9.998       9.991       9.964       9.873       9.602       8.894       7.320       4.399      4.5524E-02
   2    10.00       9.998       9.991       9.964       9.873       9.602       8.894       7.320       4.399      4.5524E-02
   3    10.00       9.998       9.991       9.964       9.873       9.602       8.894       7.320       4.399      4.5524E-02
   4    10.00       9.998       9.991       9.964       9.873       9.602       8.894       7.320       4.399      4.5524E-02
   5    10.00       9.998       9.991       9.964       9.873       9.602       8.894       7.320       4.399      4.5524E-02
   6    10.00       9.998       9.991       9.964       9.873       9.602       8.894       7.320       4.399      4.5524E-02
   7    10.00       9.998       9.991       9.964       9.873       9.602       8.894       7.320       4.399      4.5524E-02
   8    10.00       9.998       9.991       9.964       9.873       9.602       8.894       7.320       4.399      4.5524E-02
   9    10.00       9.998       9.991       9.964       9.873       9.602       8.894       7.320       4.399      4.5524E-02
  10    10.00       9.998       9.991       9.964       9.873       9.602       8.894       7.320       4.399      4.5524E-02

 HEAD WILL BE SAVED ON UNIT   51 AT END OF TIME STEP   31, STRESS PERIOD    2

 DRAWDOWN WILL BE SAVED ON UNIT   52 AT END OF TIME STEP   31, STRESS PERIOD    2
1
  VOLUMETRIC BUDGET FOR ENTIRE MODEL AT END OF TIME STEP   31, STRESS PERIOD   2
  ------------------------------------------------------------------------------

     CUMULATIVE VOLUMES      L**3       RATES FOR THIS TIME STEP      L**3/T
     ------------------                 ------------------------

           IN:                                      IN:
           ---                                      ---
             STORAGE =      199141.3281               STORAGE =        2274.9473
       CONSTANT HEAD =           0.0000         CONSTANT HEAD =           0.0000
               WELLS =           0.0000                 WELLS =           0.0000
     HEAD DEP BOUNDS =           6.8160       HEAD DEP BOUNDS =           1.2053

            TOTAL IN =      199148.1406              TOTAL IN =        2276.1526

          OUT:                                     OUT:
          ----                                     ----
             STORAGE =           0.0000               STORAGE =           0.0000
       CONSTANT HEAD =           0.0000         CONSTANT HEAD =           0.0000
               WELLS =           0.0000                 WELLS =           0.0000
     HEAD DEP BOUNDS =      199148.3281       HEAD DEP BOUNDS =        2276.1780

           TOTAL OUT =      199148.3281             TOTAL OUT =        2276.1780

            IN - OUT =          -0.1875              IN - OUT =      -2.5391E-02

 PERCENT DISCREPANCY =          -0.00     PERCENT DISCREPANCY =          -0.00






         TIME SUMMARY AT END OF TIME STEP   31 IN STRESS PERIOD    2
                    SECONDS     MINUTES      HOURS       DAYS        YEARS
                    -----------------------------------------------------------
   TIME STEP LENGTH  86400.      1440.0      24.000     1.00000     2.73785E-03
 STRESS PERIOD TIME 2.67840E+06  44640.      744.00      31.000     8.48734E-02
         TOTAL TIME 2.76480E+06  46080.      768.00      32.000     8.76112E-02
1
 
 SOLVING FOR HEAD 

 OUTPUT CONTROL FOR STRESS PERIOD    2   TIME STEP   32
    SAVE HEAD FOR ALL LAYERS
    SAVE DRAWDOWN FOR ALL LAYERS
    SAVE BUDGET
    PRINT HEAD FOR ALL LAYERS
    PRINT BUDGET
 UBDSV1 SAVING "         STORAGE" ON UNIT  53 AT TIME STEP 32, STRESS PERIOD   2
 UBDSV2 SAVING "   CONSTANT HEAD" ON UNIT  53 AT TIME STEP 32, STRESS PERIOD   2
 UBDSV1 SAVING "FLOW RIGHT FACE " ON UNIT  53 AT TIME STEP 32, STRESS PERIOD   2
 UBDSV1 SAVING "FLOW FRONT FACE " ON UNIT  53 AT TIME STEP 32, STRESS PERIOD   2
1
              HEAD IN LAYER   1 AT END OF TIME STEP  32 IN STRESS PERIOD    2
  ---------------------------------------------------------------------------

            1           2           3           4           5           6           7           8           9          10
 ........................................................................................................................
   1    10.00       9.998       9.989       9.960       9.862       9.576       8.845       7.250       4.337      4.4862E-02
   2    10.00       9.998       9.989       9.960       9.862       9.576       8.845       7.250       4.337      4.4862E-02
   3    10.00       9.998       9.989       9.960       9.862       9.576       8.845       7.250       4.337      4.4862E-02
   4    10.00       9.998       9.989       9.960       9.862       9.576       8.845       7.250       4.337      4.4862E-02
   5    10.00       9.998       9.989       9.960       9.862       9.576       8.845       7.250       4.337      4.4862E-02
   6    10.00       9.998       9.989       9.960       9.862       9.576       8.845       7.250       4.337      4.4862E-02
   7    10.00       9.998       9.989       9.960       9.862       9.576       8.845       7.250       4.337      4.4862E-02
   8    10.00       9.998       9.989       9.960       9.862       9.576       8.845       7.250       4.337      4.4862E-02
   9    10.00       9.998       9.989       9.960       9.862       9.576       8.845       7.250       4.337      4.4862E-02
  10    10.00       9.998       9.989       9.960       9.862       9.576       8.845       7.250       4.337      4.4862E-02

 HEAD WILL BE SAVED ON UNIT   51 AT END OF TIME STEP   32, STRESS PERIOD    2

 DRAWDOWN WILL BE SAVED ON UNIT   52 AT END OF TIME STEP   32, STRESS PERIOD    2
1
  VOLUMETRIC BUDGET FOR ENTIRE MODEL AT END OF TIME STEP   32, STRESS PERIOD   2
  ------------------------------------------------------------------------------

     CUMULATIVE VOLUMES      L**3       RATES FOR THIS TIME STEP      L**3/T
     ------------------                 ------------------------

           IN:                                      IN:
           ---                                      ---
             STORAGE =      201383.0000               STORAGE =        2241.6733
       CONSTANT HEAD =           0.0000         CONSTANT HEAD =           0.0000
               WELLS =           0.0000                 WELLS =           0.0000
     HEAD DEP BOUNDS =           8.2622       HEAD DEP BOUNDS =           1.4461

            TOTAL IN =      201391.2656              TOTAL IN =        2243.1194

          OUT:                                     OUT:
          ----                                     ----
             STORAGE =           0.0000               STORAGE =           0.0000
       CONSTANT HEAD =           0.0000         CONSTANT HEAD =           0.0000
               WELLS =           0.0000                 WELLS =           0.0000
     HEAD DEP BOUNDS =      201391.4219       HEAD DEP BOUNDS =        2243.0891

           TOTAL OUT =      201391.4219             TOTAL OUT =        2243.0891

            IN - OUT =          -0.1562              IN - OUT =       3.0273E-02

 PERCENT DISCREPANCY =          -0.00     PERCENT DISCREPANCY =           0.00






         TIME SUMMARY AT END OF TIME STEP   32 IN STRESS PERIOD    2
                    SECONDS     MINUTES      HOURS       DAYS        YEARS
                    -----------------------------------------------------------
   TIME STEP LENGTH  86400.      1440.0      24.000     1.00000     2.73785E-03
 STRESS PERIOD TIME 2.76480E+06  46080.      768.00      32.000     8.76112E-02
         TOTAL TIME 2.85120E+06  47520.      792.00      33.000     9.03491E-02
1
 
 SOLVING FOR HEAD 

 OUTPUT CONTROL FOR STRESS PERIOD    2   TIME STEP   33
    SAVE HEAD FOR ALL LAYERS
    SAVE DRAWDOWN FOR ALL LAYERS
    SAVE BUDGET
    PRINT HEAD FOR ALL LAYERS
    PRINT BUDGET
 UBDSV1 SAVING "         STORAGE" ON UNIT  53 AT TIME STEP 33, STRESS PERIOD   2
 UBDSV2 SAVING "   CONSTANT HEAD" ON UNIT  53 AT TIME STEP 33, STRESS PERIOD   2
 UBDSV1 SAVING "FLOW RIGHT FACE " ON UNIT  53 AT TIME STEP 33, STRESS PERIOD   2
 UBDSV1 SAVING "FLOW FRONT FACE " ON UNIT  53 AT TIME STEP 33, STRESS PERIOD   2
1
              HEAD IN LAYER   1 AT END OF TIME STEP  33 IN STRESS PERIOD    2
  ---------------------------------------------------------------------------

            1           2           3           4           5           6           7           8           9          10
 ........................................................................................................................
   1    10.00       9.997       9.988       9.956       9.850       9.549       8.796       7.182       4.278      4.4227E-02
   2    10.00       9.997       9.988       9.956       9.850       9.549       8.796       7.182       4.278      4.4227E-02
   3    10.00       9.997       9.988       9.956       9.850       9.549       8.796       7.182       4.278      4.4227E-02
   4    10.00       9.997       9.988       9.956       9.850       9.549       8.796       7.182       4.278      4.4227E-02
   5    10.00       9.997       9.988       9.956       9.850       9.549       8.796       7.182       4.278      4.4227E-02
   6    10.00       9.997       9.988       9.956       9.850       9.549       8.796       7.182       4.278      4.4227E-02
   7    10.00       9.997       9.988       9.956       9.850       9.549       8.796       7.182       4.278      4.4227E-02
   8    10.00       9.997       9.988       9.956       9.850       9.549       8.796       7.182       4.278      4.4227E-02
   9    10.00       9.997       9.988       9.956       9.850       9.549       8.796       7.182       4.278      4.4227E-02
  10    10.00       9.997       9.988       9.956       9.850       9.549       8.796       7.182       4.278      4.4227E-02

 HEAD WILL BE SAVED ON UNIT   51 AT END OF TIME STEP   33, STRESS PERIOD    2

 DRAWDOWN WILL BE SAVED ON UNIT   52 AT END OF TIME STEP   33, STRESS PERIOD    2
1
  VOLUMETRIC BUDGET FOR ENTIRE MODEL AT END OF TIME STEP   33, STRESS PERIOD   2
  ------------------------------------------------------------------------------

     CUMULATIVE VOLUMES      L**3       RATES FOR THIS TIME STEP      L**3/T
     ------------------                 ------------------------

           IN:                                      IN:
           ---                                      ---
             STORAGE =      203592.7188               STORAGE =        2209.7190
       CONSTANT HEAD =           0.0000         CONSTANT HEAD =           0.0000
               WELLS =           0.0000                 WELLS =           0.0000
     HEAD DEP BOUNDS =           9.9023       HEAD DEP BOUNDS =           1.6401

            TOTAL IN =      203602.6250              TOTAL IN =        2211.3591

          OUT:                                     OUT:
          ----                                     ----
             STORAGE =           0.0000               STORAGE =           0.0000
       CONSTANT HEAD =           0.0000         CONSTANT HEAD =           0.0000
               WELLS =           0.0000                 WELLS =           0.0000
     HEAD DEP BOUNDS =      203602.7812       HEAD DEP BOUNDS =        2211.3523

           TOTAL OUT =      203602.7812             TOTAL OUT =        2211.3523

            IN - OUT =          -0.1562              IN - OUT =       6.8359E-03

 PERCENT DISCREPANCY =          -0.00     PERCENT DISCREPANCY =           0.00






         TIME SUMMARY AT END OF TIME STEP   33 IN STRESS PERIOD    2
                    SECONDS     MINUTES      HOURS       DAYS        YEARS
                    -----------------------------------------------------------
   TIME STEP LENGTH  86400.      1440.0      24.000     1.00000     2.73785E-03
 STRESS PERIOD TIME 2.85120E+06  47520.      792.00      33.000     9.03491E-02
         TOTAL TIME 2.93760E+06  48960.      816.00      34.000     9.30869E-02
1
 
 SOLVING FOR HEAD 

 OUTPUT CONTROL FOR STRESS PERIOD    2   TIME STEP   34
    SAVE HEAD FOR ALL LAYERS
    SAVE DRAWDOWN FOR ALL LAYERS
    SAVE BUDGET
    PRINT HEAD FOR ALL LAYERS
    PRINT BUDGET
 UBDSV1 SAVING "         STORAGE" ON UNIT  53 AT TIME STEP 34, STRESS PERIOD   2
 UBDSV2 SAVING "   CONSTANT HEAD" ON UNIT  53 AT TIME STEP 34, STRESS PERIOD   2
 UBDSV1 SAVING "FLOW RIGHT FACE " ON UNIT  53 AT TIME STEP 34, STRESS PERIOD   2
 UBDSV1 SAVING "FLOW FRONT FACE " ON UNIT  53 AT TIME STEP 34, STRESS PERIOD   2
1
              HEAD IN LAYER   1 AT END OF TIME STEP  34 IN STRESS PERIOD    2
  ---------------------------------------------------------------------------

            1           2           3           4           5           6           7           8           9          10
 ........................................................................................................................
   1    10.00       9.997       9.987       9.951       9.838       9.522       8.747       7.116       4.222      4.3618E-02
   2    10.00       9.997       9.987       9.951       9.838       9.522       8.747       7.116       4.222      4.3618E-02
   3    10.00       9.997       9.987       9.951       9.838       9.522       8.747       7.116       4.222      4.3618E-02
   4    10.00       9.997       9.987       9.951       9.838       9.522       8.747       7.116       4.222      4.3618E-02
   5    10.00       9.997       9.987       9.951       9.838       9.522       8.747       7.116       4.222      4.3618E-02
   6    10.00       9.997       9.987       9.951       9.838       9.522       8.747       7.116       4.222      4.3618E-02
   7    10.00       9.997       9.987       9.951       9.838       9.522       8.747       7.116       4.222      4.3618E-02
   8    10.00       9.997       9.987       9.951       9.838       9.522       8.747       7.116       4.222      4.3618E-02
   9    10.00       9.997       9.987       9.951       9.838       9.522       8.747       7.116       4.222      4.3618E-02
  10    10.00       9.997       9.987       9.951       9.838       9.522       8.747       7.116       4.222      4.3618E-02

 HEAD WILL BE SAVED ON UNIT   51 AT END OF TIME STEP   34, STRESS PERIOD    2

 DRAWDOWN WILL BE SAVED ON UNIT   52 AT END OF TIME STEP   34, STRESS PERIOD    2
1
  VOLUMETRIC BUDGET FOR ENTIRE MODEL AT END OF TIME STEP   34, STRESS PERIOD   2
  ------------------------------------------------------------------------------

     CUMULATIVE VOLUMES      L**3       RATES FOR THIS TIME STEP      L**3/T
     ------------------                 ------------------------

           IN:                                      IN:
           ---                                      ---
             STORAGE =      205771.7188               STORAGE =        2179.0010
       CONSTANT HEAD =           0.0000         CONSTANT HEAD =           0.0000
               WELLS =           0.0000                 WELLS =           0.0000
     HEAD DEP BOUNDS =          11.8238       HEAD DEP BOUNDS =           1.9215

            TOTAL IN =      205783.5469              TOTAL IN =        2180.9226

          OUT:                                     OUT:
          ----                                     ----
             STORAGE =           0.0000               STORAGE =           0.0000
       CONSTANT HEAD =           0.0000         CONSTANT HEAD =           0.0000
               WELLS =           0.0000                 WELLS =           0.0000
     HEAD DEP BOUNDS =      205783.6719       HEAD DEP BOUNDS =        2180.8877

           TOTAL OUT =      205783.6719             TOTAL OUT =        2180.8877

            IN - OUT =          -0.1250              IN - OUT =       3.4912E-02

 PERCENT DISCREPANCY =          -0.00     PERCENT DISCREPANCY =           0.00






         TIME SUMMARY AT END OF TIME STEP   34 IN STRESS PERIOD    2
                    SECONDS     MINUTES      HOURS       DAYS        YEARS
                    -----------------------------------------------------------
   TIME STEP LENGTH  86400.      1440.0      24.000     1.00000     2.73785E-03
 STRESS PERIOD TIME 2.93760E+06  48960.      816.00      34.000     9.30869E-02
         TOTAL TIME 3.02400E+06  50400.      840.00      35.000     9.58248E-02
1
 
 SOLVING FOR HEAD 

 OUTPUT CONTROL FOR STRESS PERIOD    2   TIME STEP   35
    SAVE HEAD FOR ALL LAYERS
    SAVE DRAWDOWN FOR ALL LAYERS
    SAVE BUDGET
    PRINT HEAD FOR ALL LAYERS
    PRINT BUDGET
 UBDSV1 SAVING "         STORAGE" ON UNIT  53 AT TIME STEP 35, STRESS PERIOD   2
 UBDSV2 SAVING "   CONSTANT HEAD" ON UNIT  53 AT TIME STEP 35, STRESS PERIOD   2
 UBDSV1 SAVING "FLOW RIGHT FACE " ON UNIT  53 AT TIME STEP 35, STRESS PERIOD   2
 UBDSV1 SAVING "FLOW FRONT FACE " ON UNIT  53 AT TIME STEP 35, STRESS PERIOD   2
1
              HEAD IN LAYER   1 AT END OF TIME STEP  35 IN STRESS PERIOD    2
  ---------------------------------------------------------------------------

            1           2           3           4           5           6           7           8           9          10
 ........................................................................................................................
   1    10.00       9.996       9.985       9.946       9.826       9.495       8.699       7.051       4.168      4.3032E-02
   2    10.00       9.996       9.985       9.946       9.826       9.495       8.699       7.051       4.168      4.3032E-02
   3    10.00       9.996       9.985       9.946       9.826       9.495       8.699       7.051       4.168      4.3032E-02
   4    10.00       9.996       9.985       9.946       9.826       9.495       8.699       7.051       4.168      4.3032E-02
   5    10.00       9.996       9.985       9.946       9.826       9.495       8.699       7.051       4.168      4.3032E-02
   6    10.00       9.996       9.985       9.946       9.826       9.495       8.699       7.051       4.168      4.3032E-02
   7    10.00       9.996       9.985       9.946       9.826       9.495       8.699       7.051       4.168      4.3032E-02
   8    10.00       9.996       9.985       9.946       9.826       9.495       8.699       7.051       4.168      4.3032E-02
   9    10.00       9.996       9.985       9.946       9.826       9.495       8.699       7.051       4.168      4.3032E-02
  10    10.00       9.996       9.985       9.946       9.826       9.495       8.699       7.051       4.168      4.3032E-02

 HEAD WILL BE SAVED ON UNIT   51 AT END OF TIME STEP   35, STRESS PERIOD    2

 DRAWDOWN WILL BE SAVED ON UNIT   52 AT END OF TIME STEP   35, STRESS PERIOD    2
1
  VOLUMETRIC BUDGET FOR ENTIRE MODEL AT END OF TIME STEP   35, STRESS PERIOD   2
  ------------------------------------------------------------------------------

     CUMULATIVE VOLUMES      L**3       RATES FOR THIS TIME STEP      L**3/T
     ------------------                 ------------------------

           IN:                                      IN:
           ---                                      ---
             STORAGE =      207921.1719               STORAGE =        2149.4526
       CONSTANT HEAD =           0.0000         CONSTANT HEAD =           0.0000
               WELLS =           0.0000                 WELLS =           0.0000
     HEAD DEP BOUNDS =          13.9820       HEAD DEP BOUNDS =           2.1581

            TOTAL IN =      207935.1562              TOTAL IN =        2151.6108

          OUT:                                     OUT:
          ----                                     ----
             STORAGE =           0.0000               STORAGE =           0.0000
       CONSTANT HEAD =           0.0000         CONSTANT HEAD =           0.0000
               WELLS =           0.0000                 WELLS =           0.0000
     HEAD DEP BOUNDS =      207935.2969       HEAD DEP BOUNDS =        2151.6221

           TOTAL OUT =      207935.2969             TOTAL OUT =        2151.6221

            IN - OUT =          -0.1406              IN - OUT =      -1.1230E-02

 PERCENT DISCREPANCY =          -0.00     PERCENT DISCREPANCY =          -0.00






         TIME SUMMARY AT END OF TIME STEP   35 IN STRESS PERIOD    2
                    SECONDS     MINUTES      HOURS       DAYS        YEARS
                    -----------------------------------------------------------
   TIME STEP LENGTH  86400.      1440.0      24.000     1.00000     2.73785E-03
 STRESS PERIOD TIME 3.02400E+06  50400.      840.00      35.000     9.58248E-02
         TOTAL TIME 3.11040E+06  51840.      864.00      36.000     9.85626E-02
1
 
 SOLVING FOR HEAD 

 OUTPUT CONTROL FOR STRESS PERIOD    2   TIME STEP   36
    SAVE HEAD FOR ALL LAYERS
    SAVE DRAWDOWN FOR ALL LAYERS
    SAVE BUDGET
    PRINT HEAD FOR ALL LAYERS
    PRINT BUDGET
 UBDSV1 SAVING "         STORAGE" ON UNIT  53 AT TIME STEP 36, STRESS PERIOD   2
 UBDSV2 SAVING "   CONSTANT HEAD" ON UNIT  53 AT TIME STEP 36, STRESS PERIOD   2
 UBDSV1 SAVING "FLOW RIGHT FACE " ON UNIT  53 AT TIME STEP 36, STRESS PERIOD   2
 UBDSV1 SAVING "FLOW FRONT FACE " ON UNIT  53 AT TIME STEP 36, STRESS PERIOD   2
1
              HEAD IN LAYER   1 AT END OF TIME STEP  36 IN STRESS PERIOD    2
  ---------------------------------------------------------------------------

            1           2           3           4           5           6           7           8           9          10
 ........................................................................................................................
   1    10.00       9.996       9.983       9.941       9.813       9.467       8.651       6.987       4.115      4.2469E-02
   2    10.00       9.996       9.983       9.941       9.813       9.467       8.651       6.987       4.115      4.2469E-02
   3    10.00       9.996       9.983       9.941       9.813       9.467       8.651       6.987       4.115      4.2469E-02
   4    10.00       9.996       9.983       9.941       9.813       9.467       8.651       6.987       4.115      4.2469E-02
   5    10.00       9.996       9.983       9.941       9.813       9.467       8.651       6.987       4.115      4.2469E-02
   6    10.00       9.996       9.983       9.941       9.813       9.467       8.651       6.987       4.115      4.2469E-02
   7    10.00       9.996       9.983       9.941       9.813       9.467       8.651       6.987       4.115      4.2469E-02
   8    10.00       9.996       9.983       9.941       9.813       9.467       8.651       6.987       4.115      4.2469E-02
   9    10.00       9.996       9.983       9.941       9.813       9.467       8.651       6.987       4.115      4.2469E-02
  10    10.00       9.996       9.983       9.941       9.813       9.467       8.651       6.987       4.115      4.2469E-02

 HEAD WILL BE SAVED ON UNIT   51 AT END OF TIME STEP   36, STRESS PERIOD    2

 DRAWDOWN WILL BE SAVED ON UNIT   52 AT END OF TIME STEP   36, STRESS PERIOD    2
1
  VOLUMETRIC BUDGET FOR ENTIRE MODEL AT END OF TIME STEP   36, STRESS PERIOD   2
  ------------------------------------------------------------------------------

     CUMULATIVE VOLUMES      L**3       RATES FOR THIS TIME STEP      L**3/T
     ------------------                 ------------------------

           IN:                                      IN:
           ---                                      ---
             STORAGE =      210042.1719               STORAGE =        2121.0034
       CONSTANT HEAD =           0.0000         CONSTANT HEAD =           0.0000
               WELLS =           0.0000                 WELLS =           0.0000
     HEAD DEP BOUNDS =          16.4666       HEAD DEP BOUNDS =           2.4846

            TOTAL IN =      210058.6406              TOTAL IN =        2123.4880

          OUT:                                     OUT:
          ----                                     ----
             STORAGE =           0.0000               STORAGE =           0.0000
       CONSTANT HEAD =           0.0000         CONSTANT HEAD =           0.0000
               WELLS =           0.0000                 WELLS =           0.0000
     HEAD DEP BOUNDS =      210058.7656       HEAD DEP BOUNDS =        2123.4629

           TOTAL OUT =      210058.7656             TOTAL OUT =        2123.4629

            IN - OUT =          -0.1250              IN - OUT =       2.5146E-02

 PERCENT DISCREPANCY =          -0.00     PERCENT DISCREPANCY =           0.00






         TIME SUMMARY AT END OF TIME STEP   36 IN STRESS PERIOD    2
                    SECONDS     MINUTES      HOURS       DAYS        YEARS
                    -----------------------------------------------------------
   TIME STEP LENGTH  86400.      1440.0      24.000     1.00000     2.73785E-03
 STRESS PERIOD TIME 3.11040E+06  51840.      864.00      36.000     9.85626E-02
         TOTAL TIME 3.19680E+06  53280.      888.00      37.000     0.10130    
1
 
 SOLVING FOR HEAD 

 OUTPUT CONTROL FOR STRESS PERIOD    2   TIME STEP   37
    SAVE HEAD FOR ALL LAYERS
    SAVE DRAWDOWN FOR ALL LAYERS
    SAVE BUDGET
    PRINT HEAD FOR ALL LAYERS
    PRINT BUDGET
 UBDSV1 SAVING "         STORAGE" ON UNIT  53 AT TIME STEP 37, STRESS PERIOD   2
 UBDSV2 SAVING "   CONSTANT HEAD" ON UNIT  53 AT TIME STEP 37, STRESS PERIOD   2
 UBDSV1 SAVING "FLOW RIGHT FACE " ON UNIT  53 AT TIME STEP 37, STRESS PERIOD   2
 UBDSV1 SAVING "FLOW FRONT FACE " ON UNIT  53 AT TIME STEP 37, STRESS PERIOD   2
1
              HEAD IN LAYER   1 AT END OF TIME STEP  37 IN STRESS PERIOD    2
  ---------------------------------------------------------------------------

            1           2           3           4           5           6           7           8           9          10
 ........................................................................................................................
   1    10.00       9.995       9.981       9.935       9.799       9.439       8.603       6.926       4.065      4.1927E-02
   2    10.00       9.995       9.981       9.935       9.799       9.439       8.603       6.926       4.065      4.1927E-02
   3    10.00       9.995       9.981       9.935       9.799       9.439       8.603       6.926       4.065      4.1927E-02
   4    10.00       9.995       9.981       9.935       9.799       9.439       8.603       6.926       4.065      4.1927E-02
   5    10.00       9.995       9.981       9.935       9.799       9.439       8.603       6.926       4.065      4.1927E-02
   6    10.00       9.995       9.981       9.935       9.799       9.439       8.603       6.926       4.065      4.1927E-02
   7    10.00       9.995       9.981       9.935       9.799       9.439       8.603       6.926       4.065      4.1927E-02
   8    10.00       9.995       9.981       9.935       9.799       9.439       8.603       6.926       4.065      4.1927E-02
   9    10.00       9.995       9.981       9.935       9.799       9.439       8.603       6.926       4.065      4.1927E-02
  10    10.00       9.995       9.981       9.935       9.799       9.439       8.603       6.926       4.065      4.1927E-02

 HEAD WILL BE SAVED ON UNIT   51 AT END OF TIME STEP   37, STRESS PERIOD    2

 DRAWDOWN WILL BE SAVED ON UNIT   52 AT END OF TIME STEP   37, STRESS PERIOD    2
1
  VOLUMETRIC BUDGET FOR ENTIRE MODEL AT END OF TIME STEP   37, STRESS PERIOD   2
  ------------------------------------------------------------------------------

     CUMULATIVE VOLUMES      L**3       RATES FOR THIS TIME STEP      L**3/T
     ------------------                 ------------------------

           IN:                                      IN:
           ---                                      ---
             STORAGE =      212135.7344               STORAGE =        2093.5574
       CONSTANT HEAD =           0.0000         CONSTANT HEAD =           0.0000
               WELLS =           0.0000                 WELLS =           0.0000
     HEAD DEP BOUNDS =          19.2353       HEAD DEP BOUNDS =           2.7687

            TOTAL IN =      212154.9688              TOTAL IN =        2096.3262

          OUT:                                     OUT:
          ----                                     ----
             STORAGE =           0.0000               STORAGE =           0.0000
       CONSTANT HEAD =           0.0000         CONSTANT HEAD =           0.0000
               WELLS =           0.0000                 WELLS =           0.0000
     HEAD DEP BOUNDS =      212155.1250       HEAD DEP BOUNDS =        2096.3552

           TOTAL OUT =      212155.1250             TOTAL OUT =        2096.3552

            IN - OUT =          -0.1562              IN - OUT =      -2.9053E-02

 PERCENT DISCREPANCY =          -0.00     PERCENT DISCREPANCY =          -0.00






         TIME SUMMARY AT END OF TIME STEP   37 IN STRESS PERIOD    2
                    SECONDS     MINUTES      HOURS       DAYS        YEARS
                    -----------------------------------------------------------
   TIME STEP LENGTH  86400.      1440.0      24.000     1.00000     2.73785E-03
 STRESS PERIOD TIME 3.19680E+06  53280.      888.00      37.000     0.10130    
         TOTAL TIME 3.28320E+06  54720.      912.00      38.000     0.10404    
1
 
 SOLVING FOR HEAD 

 OUTPUT CONTROL FOR STRESS PERIOD    2   TIME STEP   38
    SAVE HEAD FOR ALL LAYERS
    SAVE DRAWDOWN FOR ALL LAYERS
    SAVE BUDGET
    PRINT HEAD FOR ALL LAYERS
    PRINT BUDGET
 UBDSV1 SAVING "         STORAGE" ON UNIT  53 AT TIME STEP 38, STRESS PERIOD   2
 UBDSV2 SAVING "   CONSTANT HEAD" ON UNIT  53 AT TIME STEP 38, STRESS PERIOD   2
 UBDSV1 SAVING "FLOW RIGHT FACE " ON UNIT  53 AT TIME STEP 38, STRESS PERIOD   2
 UBDSV1 SAVING "FLOW FRONT FACE " ON UNIT  53 AT TIME STEP 38, STRESS PERIOD   2
1
              HEAD IN LAYER   1 AT END OF TIME STEP  38 IN STRESS PERIOD    2
  ---------------------------------------------------------------------------

            1           2           3           4           5           6           7           8           9          10
 ........................................................................................................................
   1    10.00       9.995       9.979       9.930       9.786       9.411       8.556       6.865       4.016      4.1405E-02
   2    10.00       9.995       9.979       9.930       9.786       9.411       8.556       6.865       4.016      4.1405E-02
   3    10.00       9.995       9.979       9.930       9.786       9.411       8.556       6.865       4.016      4.1405E-02
   4    10.00       9.995       9.979       9.930       9.786       9.411       8.556       6.865       4.016      4.1405E-02
   5    10.00       9.995       9.979       9.930       9.786       9.411       8.556       6.865       4.016      4.1405E-02
   6    10.00       9.995       9.979       9.930       9.786       9.411       8.556       6.865       4.016      4.1405E-02
   7    10.00       9.995       9.979       9.930       9.786       9.411       8.556       6.865       4.016      4.1405E-02
   8    10.00       9.995       9.979       9.930       9.786       9.411       8.556       6.865       4.016      4.1405E-02
   9    10.00       9.995       9.979       9.930       9.786       9.411       8.556       6.865       4.016      4.1405E-02
  10    10.00       9.995       9.979       9.930       9.786       9.411       8.556       6.865       4.016      4.1405E-02

 HEAD WILL BE SAVED ON UNIT   51 AT END OF TIME STEP   38, STRESS PERIOD    2

 DRAWDOWN WILL BE SAVED ON UNIT   52 AT END OF TIME STEP   38, STRESS PERIOD    2
1
  VOLUMETRIC BUDGET FOR ENTIRE MODEL AT END OF TIME STEP   38, STRESS PERIOD   2
  ------------------------------------------------------------------------------

     CUMULATIVE VOLUMES      L**3       RATES FOR THIS TIME STEP      L**3/T
     ------------------                 ------------------------

           IN:                                      IN:
           ---                                      ---
             STORAGE =      214202.8750               STORAGE =        2067.1370
       CONSTANT HEAD =           0.0000         CONSTANT HEAD =           0.0000
               WELLS =           0.0000                 WELLS =           0.0000
     HEAD DEP BOUNDS =          22.3799       HEAD DEP BOUNDS =           3.1446

            TOTAL IN =      214225.2500              TOTAL IN =        2070.2815

          OUT:                                     OUT:
          ----                                     ----
             STORAGE =           0.0000               STORAGE =           0.0000
       CONSTANT HEAD =           0.0000         CONSTANT HEAD =           0.0000
               WELLS =           0.0000                 WELLS =           0.0000
     HEAD DEP BOUNDS =      214225.3750       HEAD DEP BOUNDS =        2070.2480

           TOTAL OUT =      214225.3750             TOTAL OUT =        2070.2480

            IN - OUT =          -0.1250              IN - OUT =       3.3447E-02

 PERCENT DISCREPANCY =          -0.00     PERCENT DISCREPANCY =           0.00






         TIME SUMMARY AT END OF TIME STEP   38 IN STRESS PERIOD    2
                    SECONDS     MINUTES      HOURS       DAYS        YEARS
                    -----------------------------------------------------------
   TIME STEP LENGTH  86400.      1440.0      24.000     1.00000     2.73785E-03
 STRESS PERIOD TIME 3.28320E+06  54720.      912.00      38.000     0.10404    
         TOTAL TIME 3.36960E+06  56160.      936.00      39.000     0.10678    
1
 
 SOLVING FOR HEAD 

 OUTPUT CONTROL FOR STRESS PERIOD    2   TIME STEP   39
    SAVE HEAD FOR ALL LAYERS
    SAVE DRAWDOWN FOR ALL LAYERS
    SAVE BUDGET
    PRINT HEAD FOR ALL LAYERS
    PRINT BUDGET
 UBDSV1 SAVING "         STORAGE" ON UNIT  53 AT TIME STEP 39, STRESS PERIOD   2
 UBDSV2 SAVING "   CONSTANT HEAD" ON UNIT  53 AT TIME STEP 39, STRESS PERIOD   2
 UBDSV1 SAVING "FLOW RIGHT FACE " ON UNIT  53 AT TIME STEP 39, STRESS PERIOD   2
 UBDSV1 SAVING "FLOW FRONT FACE " ON UNIT  53 AT TIME STEP 39, STRESS PERIOD   2
1
              HEAD IN LAYER   1 AT END OF TIME STEP  39 IN STRESS PERIOD    2
  ---------------------------------------------------------------------------

            1           2           3           4           5           6           7           8           9          10
 ........................................................................................................................
   1    10.00       9.994       9.977       9.924       9.772       9.383       8.510       6.806       3.969      4.0901E-02
   2    10.00       9.994       9.977       9.924       9.772       9.383       8.510       6.806       3.969      4.0901E-02
   3    10.00       9.994       9.977       9.924       9.772       9.383       8.510       6.806       3.969      4.0901E-02
   4    10.00       9.994       9.977       9.924       9.772       9.383       8.510       6.806       3.969      4.0901E-02
   5    10.00       9.994       9.977       9.924       9.772       9.383       8.510       6.806       3.969      4.0901E-02
   6    10.00       9.994       9.977       9.924       9.772       9.383       8.510       6.806       3.969      4.0901E-02
   7    10.00       9.994       9.977       9.924       9.772       9.383       8.510       6.806       3.969      4.0901E-02
   8    10.00       9.994       9.977       9.924       9.772       9.383       8.510       6.806       3.969      4.0901E-02
   9    10.00       9.994       9.977       9.924       9.772       9.383       8.510       6.806       3.969      4.0901E-02
  10    10.00       9.994       9.977       9.924       9.772       9.383       8.510       6.806       3.969      4.0901E-02

 HEAD WILL BE SAVED ON UNIT   51 AT END OF TIME STEP   39, STRESS PERIOD    2

 DRAWDOWN WILL BE SAVED ON UNIT   52 AT END OF TIME STEP   39, STRESS PERIOD    2
1
  VOLUMETRIC BUDGET FOR ENTIRE MODEL AT END OF TIME STEP   39, STRESS PERIOD   2
  ------------------------------------------------------------------------------

     CUMULATIVE VOLUMES      L**3       RATES FOR THIS TIME STEP      L**3/T
     ------------------                 ------------------------

           IN:                                      IN:
           ---                                      ---
             STORAGE =      216244.3906               STORAGE =        2041.5182
       CONSTANT HEAD =           0.0000         CONSTANT HEAD =           0.0000
               WELLS =           0.0000                 WELLS =           0.0000
     HEAD DEP BOUNDS =          25.9268       HEAD DEP BOUNDS =           3.5469

            TOTAL IN =      216270.3125              TOTAL IN =        2045.0651

          OUT:                                     OUT:
          ----                                     ----
             STORAGE =           0.0000               STORAGE =           0.0000
       CONSTANT HEAD =           0.0000         CONSTANT HEAD =           0.0000
               WELLS =           0.0000                 WELLS =           0.0000
     HEAD DEP BOUNDS =      216270.4375       HEAD DEP BOUNDS =        2045.0548

           TOTAL OUT =      216270.4375             TOTAL OUT =        2045.0548

            IN - OUT =          -0.1250              IN - OUT =       1.0254E-02

 PERCENT DISCREPANCY =          -0.00     PERCENT DISCREPANCY =           0.00






         TIME SUMMARY AT END OF TIME STEP   39 IN STRESS PERIOD    2
                    SECONDS     MINUTES      HOURS       DAYS        YEARS
                    -----------------------------------------------------------
   TIME STEP LENGTH  86400.      1440.0      24.000     1.00000     2.73785E-03
 STRESS PERIOD TIME 3.36960E+06  56160.      936.00      39.000     0.10678    
         TOTAL TIME 3.45600E+06  57600.      960.00      40.000     0.10951    
1
 
 SOLVING FOR HEAD 

 OUTPUT CONTROL FOR STRESS PERIOD    2   TIME STEP   40
    SAVE HEAD FOR ALL LAYERS
    SAVE DRAWDOWN FOR ALL LAYERS
    SAVE BUDGET
    PRINT HEAD FOR ALL LAYERS
    PRINT BUDGET
 UBDSV1 SAVING "         STORAGE" ON UNIT  53 AT TIME STEP 40, STRESS PERIOD   2
 UBDSV2 SAVING "   CONSTANT HEAD" ON UNIT  53 AT TIME STEP 40, STRESS PERIOD   2
 UBDSV1 SAVING "FLOW RIGHT FACE " ON UNIT  53 AT TIME STEP 40, STRESS PERIOD   2
 UBDSV1 SAVING "FLOW FRONT FACE " ON UNIT  53 AT TIME STEP 40, STRESS PERIOD   2
1
              HEAD IN LAYER   1 AT END OF TIME STEP  40 IN STRESS PERIOD    2
  ---------------------------------------------------------------------------

            1           2           3           4           5           6           7           8           9          10
 ........................................................................................................................
   1    10.00       9.993       9.975       9.918       9.757       9.354       8.463       6.749       3.924      4.0415E-02
   2    10.00       9.993       9.975       9.918       9.757       9.354       8.463       6.749       3.924      4.0415E-02
   3    10.00       9.993       9.975       9.918       9.757       9.354       8.463       6.749       3.924      4.0415E-02
   4    10.00       9.993       9.975       9.918       9.757       9.354       8.463       6.749       3.924      4.0415E-02
   5    10.00       9.993       9.975       9.918       9.757       9.354       8.463       6.749       3.924      4.0415E-02
   6    10.00       9.993       9.975       9.918       9.757       9.354       8.463       6.749       3.924      4.0415E-02
   7    10.00       9.993       9.975       9.918       9.757       9.354       8.463       6.749       3.924      4.0415E-02
   8    10.00       9.993       9.975       9.918       9.757       9.354       8.463       6.749       3.924      4.0415E-02
   9    10.00       9.993       9.975       9.918       9.757       9.354       8.463       6.749       3.924      4.0415E-02
  10    10.00       9.993       9.975       9.918       9.757       9.354       8.463       6.749       3.924      4.0415E-02

 HEAD WILL BE SAVED ON UNIT   51 AT END OF TIME STEP   40, STRESS PERIOD    2

 DRAWDOWN WILL BE SAVED ON UNIT   52 AT END OF TIME STEP   40, STRESS PERIOD    2
1
  VOLUMETRIC BUDGET FOR ENTIRE MODEL AT END OF TIME STEP   40, STRESS PERIOD   2
  ------------------------------------------------------------------------------

     CUMULATIVE VOLUMES      L**3       RATES FOR THIS TIME STEP      L**3/T
     ------------------                 ------------------------

           IN:                                      IN:
           ---                                      ---
             STORAGE =      218261.2031               STORAGE =        2016.8140
       CONSTANT HEAD =           0.0000         CONSTANT HEAD =           0.0000
               WELLS =           0.0000                 WELLS =           0.0000
     HEAD DEP BOUNDS =          29.9024       HEAD DEP BOUNDS =           3.9755

            TOTAL IN =      218291.1094              TOTAL IN =        2020.7896

          OUT:                                     OUT:
          ----                                     ----
             STORAGE =           0.0000               STORAGE =           0.0000
       CONSTANT HEAD =           0.0000         CONSTANT HEAD =           0.0000
               WELLS =           0.0000                 WELLS =           0.0000
     HEAD DEP BOUNDS =      218291.1875       HEAD DEP BOUNDS =        2020.7559

           TOTAL OUT =      218291.1875             TOTAL OUT =        2020.7559

            IN - OUT =      -7.8125E-02              IN - OUT =       3.3691E-02

 PERCENT DISCREPANCY =          -0.00     PERCENT DISCREPANCY =           0.00






         TIME SUMMARY AT END OF TIME STEP   40 IN STRESS PERIOD    2
                    SECONDS     MINUTES      HOURS       DAYS        YEARS
                    -----------------------------------------------------------
   TIME STEP LENGTH  86400.      1440.0      24.000     1.00000     2.73785E-03
 STRESS PERIOD TIME 3.45600E+06  57600.      960.00      40.000     0.10951    
         TOTAL TIME 3.54240E+06  59040.      984.00      41.000     0.11225    
1
 
 SOLVING FOR HEAD 

 OUTPUT CONTROL FOR STRESS PERIOD    2   TIME STEP   41
    SAVE HEAD FOR ALL LAYERS
    SAVE DRAWDOWN FOR ALL LAYERS
    SAVE BUDGET
    PRINT HEAD FOR ALL LAYERS
    PRINT BUDGET
 UBDSV1 SAVING "         STORAGE" ON UNIT  53 AT TIME STEP 41, STRESS PERIOD   2
 UBDSV2 SAVING "   CONSTANT HEAD" ON UNIT  53 AT TIME STEP 41, STRESS PERIOD   2
 UBDSV1 SAVING "FLOW RIGHT FACE " ON UNIT  53 AT TIME STEP 41, STRESS PERIOD   2
 UBDSV1 SAVING "FLOW FRONT FACE " ON UNIT  53 AT TIME STEP 41, STRESS PERIOD   2
1
              HEAD IN LAYER   1 AT END OF TIME STEP  41 IN STRESS PERIOD    2
  ---------------------------------------------------------------------------

            1           2           3           4           5           6           7           8           9          10
 ........................................................................................................................
   1    10.00       9.992       9.972       9.911       9.743       9.326       8.417       6.693       3.880      3.9946E-02
   2    10.00       9.992       9.972       9.911       9.743       9.326       8.417       6.693       3.880      3.9946E-02
   3    10.00       9.992       9.972       9.911       9.743       9.326       8.417       6.693       3.880      3.9946E-02
   4    10.00       9.992       9.972       9.911       9.743       9.326       8.417       6.693       3.880      3.9946E-02
   5    10.00       9.992       9.972       9.911       9.743       9.326       8.417       6.693       3.880      3.9946E-02
   6    10.00       9.992       9.972       9.911       9.743       9.326       8.417       6.693       3.880      3.9946E-02
   7    10.00       9.992       9.972       9.911       9.743       9.326       8.417       6.693       3.880      3.9946E-02
   8    10.00       9.992       9.972       9.911       9.743       9.326       8.417       6.693       3.880      3.9946E-02
   9    10.00       9.992       9.972       9.911       9.743       9.326       8.417       6.693       3.880      3.9946E-02
  10    10.00       9.992       9.972       9.911       9.743       9.326       8.417       6.693       3.880      3.9946E-02

 HEAD WILL BE SAVED ON UNIT   51 AT END OF TIME STEP   41, STRESS PERIOD    2

 DRAWDOWN WILL BE SAVED ON UNIT   52 AT END OF TIME STEP   41, STRESS PERIOD    2
1
  VOLUMETRIC BUDGET FOR ENTIRE MODEL AT END OF TIME STEP   41, STRESS PERIOD   2
  ------------------------------------------------------------------------------

     CUMULATIVE VOLUMES      L**3       RATES FOR THIS TIME STEP      L**3/T
     ------------------                 ------------------------

           IN:                                      IN:
           ---                                      ---
             STORAGE =      220254.0781               STORAGE =        1992.8726
       CONSTANT HEAD =           0.0000         CONSTANT HEAD =           0.0000
               WELLS =           0.0000                 WELLS =           0.0000
     HEAD DEP BOUNDS =          34.2684       HEAD DEP BOUNDS =           4.3660

            TOTAL IN =      220288.3438              TOTAL IN =        1997.2385

          OUT:                                     OUT:
          ----                                     ----
             STORAGE =           0.0000               STORAGE =           0.0000
       CONSTANT HEAD =           0.0000         CONSTANT HEAD =           0.0000
               WELLS =           0.0000                 WELLS =           0.0000
     HEAD DEP BOUNDS =      220288.4688       HEAD DEP BOUNDS =        1997.2788

           TOTAL OUT =      220288.4688             TOTAL OUT =        1997.2788

            IN - OUT =          -0.1250              IN - OUT =      -4.0283E-02

 PERCENT DISCREPANCY =          -0.00     PERCENT DISCREPANCY =          -0.00






         TIME SUMMARY AT END OF TIME STEP   41 IN STRESS PERIOD    2
                    SECONDS     MINUTES      HOURS       DAYS        YEARS
                    -----------------------------------------------------------
   TIME STEP LENGTH  86400.      1440.0      24.000     1.00000     2.73785E-03
 STRESS PERIOD TIME 3.54240E+06  59040.      984.00      41.000     0.11225    
         TOTAL TIME 3.62880E+06  60480.      1008.0      42.000     0.11499    
1
 
 SOLVING FOR HEAD 

 OUTPUT CONTROL FOR STRESS PERIOD    2   TIME STEP   42
    SAVE HEAD FOR ALL LAYERS
    SAVE DRAWDOWN FOR ALL LAYERS
    SAVE BUDGET
    PRINT HEAD FOR ALL LAYERS
    PRINT BUDGET
 UBDSV1 SAVING "         STORAGE" ON UNIT  53 AT TIME STEP 42, STRESS PERIOD   2
 UBDSV2 SAVING "   CONSTANT HEAD" ON UNIT  53 AT TIME STEP 42, STRESS PERIOD   2
 UBDSV1 SAVING "FLOW RIGHT FACE " ON UNIT  53 AT TIME STEP 42, STRESS PERIOD   2
 UBDSV1 SAVING "FLOW FRONT FACE " ON UNIT  53 AT TIME STEP 42, STRESS PERIOD   2
1
              HEAD IN LAYER   1 AT END OF TIME STEP  42 IN STRESS PERIOD    2
  ---------------------------------------------------------------------------

            1           2           3           4           5           6           7           8           9          10
 ........................................................................................................................
   1    10.00       9.992       9.970       9.905       9.728       9.297       8.372       6.638       3.838      3.9492E-02
   2    10.00       9.992       9.970       9.905       9.728       9.297       8.372       6.638       3.838      3.9492E-02
   3    10.00       9.992       9.970       9.905       9.728       9.297       8.372       6.638       3.838      3.9492E-02
   4    10.00       9.992       9.970       9.905       9.728       9.297       8.372       6.638       3.838      3.9492E-02
   5    10.00       9.992       9.970       9.905       9.728       9.297       8.372       6.638       3.838      3.9492E-02
   6    10.00       9.992       9.970       9.905       9.728       9.297       8.372       6.638       3.838      3.9492E-02
   7    10.00       9.992       9.970       9.905       9.728       9.297       8.372       6.638       3.838      3.9492E-02
   8    10.00       9.992       9.970       9.905       9.728       9.297       8.372       6.638       3.838      3.9492E-02
   9    10.00       9.992       9.970       9.905       9.728       9.297       8.372       6.638       3.838      3.9492E-02
  10    10.00       9.992       9.970       9.905       9.728       9.297       8.372       6.638       3.838      3.9492E-02

 HEAD WILL BE SAVED ON UNIT   51 AT END OF TIME STEP   42, STRESS PERIOD    2

 DRAWDOWN WILL BE SAVED ON UNIT   52 AT END OF TIME STEP   42, STRESS PERIOD    2
1
  VOLUMETRIC BUDGET FOR ENTIRE MODEL AT END OF TIME STEP   42, STRESS PERIOD   2
  ------------------------------------------------------------------------------

     CUMULATIVE VOLUMES      L**3       RATES FOR THIS TIME STEP      L**3/T
     ------------------                 ------------------------

           IN:                                      IN:
           ---                                      ---
             STORAGE =      222223.7969               STORAGE =        1969.7208
       CONSTANT HEAD =           0.0000         CONSTANT HEAD =           0.0000
               WELLS =           0.0000                 WELLS =           0.0000
     HEAD DEP BOUNDS =          39.1200       HEAD DEP BOUNDS =           4.8517

            TOTAL IN =      222262.9219              TOTAL IN =        1974.5725

          OUT:                                     OUT:
          ----                                     ----
             STORAGE =           0.0000               STORAGE =           0.0000
       CONSTANT HEAD =           0.0000         CONSTANT HEAD =           0.0000
               WELLS =           0.0000                 WELLS =           0.0000
     HEAD DEP BOUNDS =      222263.0625       HEAD DEP BOUNDS =        1974.5870

           TOTAL OUT =      222263.0625             TOTAL OUT =        1974.5870

            IN - OUT =          -0.1406              IN - OUT =      -1.4526E-02

 PERCENT DISCREPANCY =          -0.00     PERCENT DISCREPANCY =          -0.00






         TIME SUMMARY AT END OF TIME STEP   42 IN STRESS PERIOD    2
                    SECONDS     MINUTES      HOURS       DAYS        YEARS
                    -----------------------------------------------------------
   TIME STEP LENGTH  86400.      1440.0      24.000     1.00000     2.73785E-03
 STRESS PERIOD TIME 3.62880E+06  60480.      1008.0      42.000     0.11499    
         TOTAL TIME 3.71520E+06  61920.      1032.0      43.000     0.11773    
1
 
 SOLVING FOR HEAD 

 OUTPUT CONTROL FOR STRESS PERIOD    2   TIME STEP   43
    SAVE HEAD FOR ALL LAYERS
    SAVE DRAWDOWN FOR ALL LAYERS
    SAVE BUDGET
    PRINT HEAD FOR ALL LAYERS
    PRINT BUDGET
 UBDSV1 SAVING "         STORAGE" ON UNIT  53 AT TIME STEP 43, STRESS PERIOD   2
 UBDSV2 SAVING "   CONSTANT HEAD" ON UNIT  53 AT TIME STEP 43, STRESS PERIOD   2
 UBDSV1 SAVING "FLOW RIGHT FACE " ON UNIT  53 AT TIME STEP 43, STRESS PERIOD   2
 UBDSV1 SAVING "FLOW FRONT FACE " ON UNIT  53 AT TIME STEP 43, STRESS PERIOD   2
1
              HEAD IN LAYER   1 AT END OF TIME STEP  43 IN STRESS PERIOD    2
  ---------------------------------------------------------------------------

            1           2           3           4           5           6           7           8           9          10
 ........................................................................................................................
   1    10.00       9.991       9.967       9.898       9.712       9.268       8.327       6.584       3.797      3.9053E-02
   2    10.00       9.991       9.967       9.898       9.712       9.268       8.327       6.584       3.797      3.9053E-02
   3    10.00       9.991       9.967       9.898       9.712       9.268       8.327       6.584       3.797      3.9053E-02
   4    10.00       9.991       9.967       9.898       9.712       9.268       8.327       6.584       3.797      3.9053E-02
   5    10.00       9.991       9.967       9.898       9.712       9.268       8.327       6.584       3.797      3.9053E-02
   6    10.00       9.991       9.967       9.898       9.712       9.268       8.327       6.584       3.797      3.9053E-02
   7    10.00       9.991       9.967       9.898       9.712       9.268       8.327       6.584       3.797      3.9053E-02
   8    10.00       9.991       9.967       9.898       9.712       9.268       8.327       6.584       3.797      3.9053E-02
   9    10.00       9.991       9.967       9.898       9.712       9.268       8.327       6.584       3.797      3.9053E-02
  10    10.00       9.991       9.967       9.898       9.712       9.268       8.327       6.584       3.797      3.9053E-02

 HEAD WILL BE SAVED ON UNIT   51 AT END OF TIME STEP   43, STRESS PERIOD    2

 DRAWDOWN WILL BE SAVED ON UNIT   52 AT END OF TIME STEP   43, STRESS PERIOD    2
1
  VOLUMETRIC BUDGET FOR ENTIRE MODEL AT END OF TIME STEP   43, STRESS PERIOD   2
  ------------------------------------------------------------------------------

     CUMULATIVE VOLUMES      L**3       RATES FOR THIS TIME STEP      L**3/T
     ------------------                 ------------------------

           IN:                                      IN:
           ---                                      ---
             STORAGE =      224171.0469               STORAGE =        1947.2555
       CONSTANT HEAD =           0.0000         CONSTANT HEAD =           0.0000
               WELLS =           0.0000                 WELLS =           0.0000
     HEAD DEP BOUNDS =          44.4874       HEAD DEP BOUNDS =           5.3674

            TOTAL IN =      224215.5312              TOTAL IN =        1952.6229

          OUT:                                     OUT:
          ----                                     ----
             STORAGE =           0.0000               STORAGE =           0.0000
       CONSTANT HEAD =           0.0000         CONSTANT HEAD =           0.0000
               WELLS =           0.0000                 WELLS =           0.0000
     HEAD DEP BOUNDS =      224215.7031       HEAD DEP BOUNDS =        1952.6378

           TOTAL OUT =      224215.7031             TOTAL OUT =        1952.6378

            IN - OUT =          -0.1719              IN - OUT =      -1.4893E-02

 PERCENT DISCREPANCY =          -0.00     PERCENT DISCREPANCY =          -0.00






         TIME SUMMARY AT END OF TIME STEP   43 IN STRESS PERIOD    2
                    SECONDS     MINUTES      HOURS       DAYS        YEARS
                    -----------------------------------------------------------
   TIME STEP LENGTH  86400.      1440.0      24.000     1.00000     2.73785E-03
 STRESS PERIOD TIME 3.71520E+06  61920.      1032.0      43.000     0.11773    
         TOTAL TIME 3.80160E+06  63360.      1056.0      44.000     0.12047    
1
 
 SOLVING FOR HEAD 

 OUTPUT CONTROL FOR STRESS PERIOD    2   TIME STEP   44
    SAVE HEAD FOR ALL LAYERS
    SAVE DRAWDOWN FOR ALL LAYERS
    SAVE BUDGET
    PRINT HEAD FOR ALL LAYERS
    PRINT BUDGET
 UBDSV1 SAVING "         STORAGE" ON UNIT  53 AT TIME STEP 44, STRESS PERIOD   2
 UBDSV2 SAVING "   CONSTANT HEAD" ON UNIT  53 AT TIME STEP 44, STRESS PERIOD   2
 UBDSV1 SAVING "FLOW RIGHT FACE " ON UNIT  53 AT TIME STEP 44, STRESS PERIOD   2
 UBDSV1 SAVING "FLOW FRONT FACE " ON UNIT  53 AT TIME STEP 44, STRESS PERIOD   2
1
              HEAD IN LAYER   1 AT END OF TIME STEP  44 IN STRESS PERIOD    2
  ---------------------------------------------------------------------------

            1           2           3           4           5           6           7           8           9          10
 ........................................................................................................................
   1    10.00       9.990       9.964       9.890       9.697       9.239       8.283       6.532       3.757      3.8628E-02
   2    10.00       9.990       9.964       9.890       9.697       9.239       8.283       6.532       3.757      3.8628E-02
   3    10.00       9.990       9.964       9.890       9.697       9.239       8.283       6.532       3.757      3.8628E-02
   4    10.00       9.990       9.964       9.890       9.697       9.239       8.283       6.532       3.757      3.8628E-02
   5    10.00       9.990       9.964       9.890       9.697       9.239       8.283       6.532       3.757      3.8628E-02
   6    10.00       9.990       9.964       9.890       9.697       9.239       8.283       6.532       3.757      3.8628E-02
   7    10.00       9.990       9.964       9.890       9.697       9.239       8.283       6.532       3.757      3.8628E-02
   8    10.00       9.990       9.964       9.890       9.697       9.239       8.283       6.532       3.757      3.8628E-02
   9    10.00       9.990       9.964       9.890       9.697       9.239       8.283       6.532       3.757      3.8628E-02
  10    10.00       9.990       9.964       9.890       9.697       9.239       8.283       6.532       3.757      3.8628E-02

 HEAD WILL BE SAVED ON UNIT   51 AT END OF TIME STEP   44, STRESS PERIOD    2

 DRAWDOWN WILL BE SAVED ON UNIT   52 AT END OF TIME STEP   44, STRESS PERIOD    2
1
  VOLUMETRIC BUDGET FOR ENTIRE MODEL AT END OF TIME STEP   44, STRESS PERIOD   2
  ------------------------------------------------------------------------------

     CUMULATIVE VOLUMES      L**3       RATES FOR THIS TIME STEP      L**3/T
     ------------------                 ------------------------

           IN:                                      IN:
           ---                                      ---
             STORAGE =      226096.5312               STORAGE =        1925.4780
       CONSTANT HEAD =           0.0000         CONSTANT HEAD =           0.0000
               WELLS =           0.0000                 WELLS =           0.0000
     HEAD DEP BOUNDS =          50.4672       HEAD DEP BOUNDS =           5.9797

            TOTAL IN =      226147.0000              TOTAL IN =        1931.4578

          OUT:                                     OUT:
          ----                                     ----
             STORAGE =           0.0000               STORAGE =           0.0000
       CONSTANT HEAD =           0.0000         CONSTANT HEAD =           0.0000
               WELLS =           0.0000                 WELLS =           0.0000
     HEAD DEP BOUNDS =      226147.1094       HEAD DEP BOUNDS =        1931.3995

           TOTAL OUT =      226147.1094             TOTAL OUT =        1931.3995

            IN - OUT =          -0.1094              IN - OUT =       5.8228E-02

 PERCENT DISCREPANCY =          -0.00     PERCENT DISCREPANCY =           0.00






         TIME SUMMARY AT END OF TIME STEP   44 IN STRESS PERIOD    2
                    SECONDS     MINUTES      HOURS       DAYS        YEARS
                    -----------------------------------------------------------
   TIME STEP LENGTH  86400.      1440.0      24.000     1.00000     2.73785E-03
 STRESS PERIOD TIME 3.80160E+06  63360.      1056.0      44.000     0.12047    
         TOTAL TIME 3.88800E+06  64800.      1080.0      45.000     0.12320    
1
 
 SOLVING FOR HEAD 

 OUTPUT CONTROL FOR STRESS PERIOD    2   TIME STEP   45
    SAVE HEAD FOR ALL LAYERS
    SAVE DRAWDOWN FOR ALL LAYERS
    SAVE BUDGET
    PRINT HEAD FOR ALL LAYERS
    PRINT BUDGET
 UBDSV1 SAVING "         STORAGE" ON UNIT  53 AT TIME STEP 45, STRESS PERIOD   2
 UBDSV2 SAVING "   CONSTANT HEAD" ON UNIT  53 AT TIME STEP 45, STRESS PERIOD   2
 UBDSV1 SAVING "FLOW RIGHT FACE " ON UNIT  53 AT TIME STEP 45, STRESS PERIOD   2
 UBDSV1 SAVING "FLOW FRONT FACE " ON UNIT  53 AT TIME STEP 45, STRESS PERIOD   2
1
              HEAD IN LAYER   1 AT END OF TIME STEP  45 IN STRESS PERIOD    2
  ---------------------------------------------------------------------------

            1           2           3           4           5           6           7           8           9          10
 ........................................................................................................................
   1    10.00       9.989       9.961       9.883       9.681       9.210       8.239       6.481       3.718      3.8217E-02
   2    10.00       9.989       9.961       9.883       9.681       9.210       8.239       6.481       3.718      3.8217E-02
   3    10.00       9.989       9.961       9.883       9.681       9.210       8.239       6.481       3.718      3.8217E-02
   4    10.00       9.989       9.961       9.883       9.681       9.210       8.239       6.481       3.718      3.8217E-02
   5    10.00       9.989       9.961       9.883       9.681       9.210       8.239       6.481       3.718      3.8217E-02
   6    10.00       9.989       9.961       9.883       9.681       9.210       8.239       6.481       3.718      3.8217E-02
   7    10.00       9.989       9.961       9.883       9.681       9.210       8.239       6.481       3.718      3.8217E-02
   8    10.00       9.989       9.961       9.883       9.681       9.210       8.239       6.481       3.718      3.8217E-02
   9    10.00       9.989       9.961       9.883       9.681       9.210       8.239       6.481       3.718      3.8217E-02
  10    10.00       9.989       9.961       9.883       9.681       9.210       8.239       6.481       3.718      3.8217E-02

 HEAD WILL BE SAVED ON UNIT   51 AT END OF TIME STEP   45, STRESS PERIOD    2

 DRAWDOWN WILL BE SAVED ON UNIT   52 AT END OF TIME STEP   45, STRESS PERIOD    2
1
  VOLUMETRIC BUDGET FOR ENTIRE MODEL AT END OF TIME STEP   45, STRESS PERIOD   2
  ------------------------------------------------------------------------------

     CUMULATIVE VOLUMES      L**3       RATES FOR THIS TIME STEP      L**3/T
     ------------------                 ------------------------

           IN:                                      IN:
           ---                                      ---
             STORAGE =      228000.7969               STORAGE =        1904.2690
       CONSTANT HEAD =           0.0000         CONSTANT HEAD =           0.0000
               WELLS =           0.0000                 WELLS =           0.0000
     HEAD DEP BOUNDS =          57.0238       HEAD DEP BOUNDS =           6.5566

            TOTAL IN =      228057.8281              TOTAL IN =        1910.8257

          OUT:                                     OUT:
          ----                                     ----
             STORAGE =           0.0000               STORAGE =           0.0000
       CONSTANT HEAD =           0.0000         CONSTANT HEAD =           0.0000
               WELLS =           0.0000                 WELLS =           0.0000
     HEAD DEP BOUNDS =      228057.9375       HEAD DEP BOUNDS =        1910.8254

           TOTAL OUT =      228057.9375             TOTAL OUT =        1910.8254

            IN - OUT =          -0.1094              IN - OUT =       2.4414E-04

 PERCENT DISCREPANCY =          -0.00     PERCENT DISCREPANCY =           0.00






         TIME SUMMARY AT END OF TIME STEP   45 IN STRESS PERIOD    2
                    SECONDS     MINUTES      HOURS       DAYS        YEARS
                    -----------------------------------------------------------
   TIME STEP LENGTH  86400.      1440.0      24.000     1.00000     2.73785E-03
 STRESS PERIOD TIME 3.88800E+06  64800.      1080.0      45.000     0.12320    
         TOTAL TIME 3.97440E+06  66240.      1104.0      46.000     0.12594    
1
 
 SOLVING FOR HEAD 

 OUTPUT CONTROL FOR STRESS PERIOD    2   TIME STEP   46
    SAVE HEAD FOR ALL LAYERS
    SAVE DRAWDOWN FOR ALL LAYERS
    SAVE BUDGET
    PRINT HEAD FOR ALL LAYERS
    PRINT BUDGET
 UBDSV1 SAVING "         STORAGE" ON UNIT  53 AT TIME STEP 46, STRESS PERIOD   2
 UBDSV2 SAVING "   CONSTANT HEAD" ON UNIT  53 AT TIME STEP 46, STRESS PERIOD   2
 UBDSV1 SAVING "FLOW RIGHT FACE " ON UNIT  53 AT TIME STEP 46, STRESS PERIOD   2
 UBDSV1 SAVING "FLOW FRONT FACE " ON UNIT  53 AT TIME STEP 46, STRESS PERIOD   2
1
              HEAD IN LAYER   1 AT END OF TIME STEP  46 IN STRESS PERIOD    2
  ---------------------------------------------------------------------------

            1           2           3           4           5           6           7           8           9          10
 ........................................................................................................................
   1    10.00       9.988       9.958       9.875       9.665       9.181       8.196       6.430       3.681      3.7818E-02
   2    10.00       9.988       9.958       9.875       9.665       9.181       8.196       6.430       3.681      3.7818E-02
   3    10.00       9.988       9.958       9.875       9.665       9.181       8.196       6.430       3.681      3.7818E-02
   4    10.00       9.988       9.958       9.875       9.665       9.181       8.196       6.430       3.681      3.7818E-02
   5    10.00       9.988       9.958       9.875       9.665       9.181       8.196       6.430       3.681      3.7818E-02
   6    10.00       9.988       9.958       9.875       9.665       9.181       8.196       6.430       3.681      3.7818E-02
   7    10.00       9.988       9.958       9.875       9.665       9.181       8.196       6.430       3.681      3.7818E-02
   8    10.00       9.988       9.958       9.875       9.665       9.181       8.196       6.430       3.681      3.7818E-02
   9    10.00       9.988       9.958       9.875       9.665       9.181       8.196       6.430       3.681      3.7818E-02
  10    10.00       9.988       9.958       9.875       9.665       9.181       8.196       6.430       3.681      3.7818E-02

 HEAD WILL BE SAVED ON UNIT   51 AT END OF TIME STEP   46, STRESS PERIOD    2

 DRAWDOWN WILL BE SAVED ON UNIT   52 AT END OF TIME STEP   46, STRESS PERIOD    2
1
  VOLUMETRIC BUDGET FOR ENTIRE MODEL AT END OF TIME STEP   46, STRESS PERIOD   2
  ------------------------------------------------------------------------------

     CUMULATIVE VOLUMES      L**3       RATES FOR THIS TIME STEP      L**3/T
     ------------------                 ------------------------

           IN:                                      IN:
           ---                                      ---
             STORAGE =      229884.5156               STORAGE =        1883.7173
       CONSTANT HEAD =           0.0000         CONSTANT HEAD =           0.0000
               WELLS =           0.0000                 WELLS =           0.0000
     HEAD DEP BOUNDS =          64.1892       HEAD DEP BOUNDS =           7.1655

            TOTAL IN =      229948.7031              TOTAL IN =        1890.8827

          OUT:                                     OUT:
          ----                                     ----
             STORAGE =           0.0000               STORAGE =           0.0000
       CONSTANT HEAD =           0.0000         CONSTANT HEAD =           0.0000
               WELLS =           0.0000                 WELLS =           0.0000
     HEAD DEP BOUNDS =      229948.8281       HEAD DEP BOUNDS =        1890.8888

           TOTAL OUT =      229948.8281             TOTAL OUT =        1890.8888

            IN - OUT =          -0.1250              IN - OUT =      -6.1035E-03

 PERCENT DISCREPANCY =          -0.00     PERCENT DISCREPANCY =          -0.00






         TIME SUMMARY AT END OF TIME STEP   46 IN STRESS PERIOD    2
                    SECONDS     MINUTES      HOURS       DAYS        YEARS
                    -----------------------------------------------------------
   TIME STEP LENGTH  86400.      1440.0      24.000     1.00000     2.73785E-03
 STRESS PERIOD TIME 3.97440E+06  66240.      1104.0      46.000     0.12594    
         TOTAL TIME 4.06080E+06  67680.      1128.0      47.000     0.12868    
1
 
 SOLVING FOR HEAD 

 OUTPUT CONTROL FOR STRESS PERIOD    2   TIME STEP   47
    SAVE HEAD FOR ALL LAYERS
    SAVE DRAWDOWN FOR ALL LAYERS
    SAVE BUDGET
    PRINT HEAD FOR ALL LAYERS
    PRINT BUDGET
 UBDSV1 SAVING "         STORAGE" ON UNIT  53 AT TIME STEP 47, STRESS PERIOD   2
 UBDSV2 SAVING "   CONSTANT HEAD" ON UNIT  53 AT TIME STEP 47, STRESS PERIOD   2
 UBDSV1 SAVING "FLOW RIGHT FACE " ON UNIT  53 AT TIME STEP 47, STRESS PERIOD   2
 UBDSV1 SAVING "FLOW FRONT FACE " ON UNIT  53 AT TIME STEP 47, STRESS PERIOD   2
1
              HEAD IN LAYER   1 AT END OF TIME STEP  47 IN STRESS PERIOD    2
  ---------------------------------------------------------------------------

            1           2           3           4           5           6           7           8           9          10
 ........................................................................................................................
   1    10.00       9.987       9.955       9.868       9.648       9.152       8.153       6.381       3.645      3.7431E-02
   2    10.00       9.987       9.955       9.868       9.648       9.152       8.153       6.381       3.645      3.7431E-02
   3    10.00       9.987       9.955       9.868       9.648       9.152       8.153       6.381       3.645      3.7431E-02
   4    10.00       9.987       9.955       9.868       9.648       9.152       8.153       6.381       3.645      3.7431E-02
   5    10.00       9.987       9.955       9.868       9.648       9.152       8.153       6.381       3.645      3.7431E-02
   6    10.00       9.987       9.955       9.868       9.648       9.152       8.153       6.381       3.645      3.7431E-02
   7    10.00       9.987       9.955       9.868       9.648       9.152       8.153       6.381       3.645      3.7431E-02
   8    10.00       9.987       9.955       9.868       9.648       9.152       8.153       6.381       3.645      3.7431E-02
   9    10.00       9.987       9.955       9.868       9.648       9.152       8.153       6.381       3.645      3.7431E-02
  10    10.00       9.987       9.955       9.868       9.648       9.152       8.153       6.381       3.645      3.7431E-02

 HEAD WILL BE SAVED ON UNIT   51 AT END OF TIME STEP   47, STRESS PERIOD    2

 DRAWDOWN WILL BE SAVED ON UNIT   52 AT END OF TIME STEP   47, STRESS PERIOD    2
1
  VOLUMETRIC BUDGET FOR ENTIRE MODEL AT END OF TIME STEP   47, STRESS PERIOD   2
  ------------------------------------------------------------------------------

     CUMULATIVE VOLUMES      L**3       RATES FOR THIS TIME STEP      L**3/T
     ------------------                 ------------------------

           IN:                                      IN:
           ---                                      ---
             STORAGE =      231748.2500               STORAGE =        1863.7377
       CONSTANT HEAD =           0.0000         CONSTANT HEAD =           0.0000
               WELLS =           0.0000                 WELLS =           0.0000
     HEAD DEP BOUNDS =          71.9955       HEAD DEP BOUNDS =           7.8063

            TOTAL IN =      231820.2500              TOTAL IN =        1871.5439

          OUT:                                     OUT:
          ----                                     ----
             STORAGE =           0.0000               STORAGE =           0.0000
       CONSTANT HEAD =           0.0000         CONSTANT HEAD =           0.0000
               WELLS =           0.0000                 WELLS =           0.0000
     HEAD DEP BOUNDS =      231820.3906       HEAD DEP BOUNDS =        1871.5551

           TOTAL OUT =      231820.3906             TOTAL OUT =        1871.5551

            IN - OUT =          -0.1406              IN - OUT =      -1.1108E-02

 PERCENT DISCREPANCY =          -0.00     PERCENT DISCREPANCY =          -0.00






         TIME SUMMARY AT END OF TIME STEP   47 IN STRESS PERIOD    2
                    SECONDS     MINUTES      HOURS       DAYS        YEARS
                    -----------------------------------------------------------
   TIME STEP LENGTH  86400.      1440.0      24.000     1.00000     2.73785E-03
 STRESS PERIOD TIME 4.06080E+06  67680.      1128.0      47.000     0.12868    
         TOTAL TIME 4.14720E+06  69120.      1152.0      48.000     0.13142    
1
 
 SOLVING FOR HEAD 

 OUTPUT CONTROL FOR STRESS PERIOD    2   TIME STEP   48
    SAVE HEAD FOR ALL LAYERS
    SAVE DRAWDOWN FOR ALL LAYERS
    SAVE BUDGET
    PRINT HEAD FOR ALL LAYERS
    PRINT BUDGET
 UBDSV1 SAVING "         STORAGE" ON UNIT  53 AT TIME STEP 48, STRESS PERIOD   2
 UBDSV2 SAVING "   CONSTANT HEAD" ON UNIT  53 AT TIME STEP 48, STRESS PERIOD   2
 UBDSV1 SAVING "FLOW RIGHT FACE " ON UNIT  53 AT TIME STEP 48, STRESS PERIOD   2
 UBDSV1 SAVING "FLOW FRONT FACE " ON UNIT  53 AT TIME STEP 48, STRESS PERIOD   2
1
              HEAD IN LAYER   1 AT END OF TIME STEP  48 IN STRESS PERIOD    2
  ---------------------------------------------------------------------------

            1           2           3           4           5           6           7           8           9          10
 ........................................................................................................................
   1    10.00       9.985       9.951       9.859       9.632       9.123       8.111       6.333       3.609      3.7056E-02
   2    10.00       9.985       9.951       9.859       9.632       9.123       8.111       6.333       3.609      3.7056E-02
   3    10.00       9.985       9.951       9.859       9.632       9.123       8.111       6.333       3.609      3.7056E-02
   4    10.00       9.985       9.951       9.859       9.632       9.123       8.111       6.333       3.609      3.7056E-02
   5    10.00       9.985       9.951       9.859       9.632       9.123       8.111       6.333       3.609      3.7056E-02
   6    10.00       9.985       9.951       9.859       9.632       9.123       8.111       6.333       3.609      3.7056E-02
   7    10.00       9.985       9.951       9.859       9.632       9.123       8.111       6.333       3.609      3.7056E-02
   8    10.00       9.985       9.951       9.859       9.632       9.123       8.111       6.333       3.609      3.7056E-02
   9    10.00       9.985       9.951       9.859       9.632       9.123       8.111       6.333       3.609      3.7056E-02
  10    10.00       9.985       9.951       9.859       9.632       9.123       8.111       6.333       3.609      3.7056E-02

 HEAD WILL BE SAVED ON UNIT   51 AT END OF TIME STEP   48, STRESS PERIOD    2

 DRAWDOWN WILL BE SAVED ON UNIT   52 AT END OF TIME STEP   48, STRESS PERIOD    2
1
  VOLUMETRIC BUDGET FOR ENTIRE MODEL AT END OF TIME STEP   48, STRESS PERIOD   2
  ------------------------------------------------------------------------------

     CUMULATIVE VOLUMES      L**3       RATES FOR THIS TIME STEP      L**3/T
     ------------------                 ------------------------

           IN:                                      IN:
           ---                                      ---
             STORAGE =      233592.5156               STORAGE =        1844.2595
       CONSTANT HEAD =           0.0000         CONSTANT HEAD =           0.0000
               WELLS =           0.0000                 WELLS =           0.0000
     HEAD DEP BOUNDS =          80.5418       HEAD DEP BOUNDS =           8.5463

            TOTAL IN =      233673.0625              TOTAL IN =        1852.8058

          OUT:                                     OUT:
          ----                                     ----
             STORAGE =           0.0000               STORAGE =           0.0000
       CONSTANT HEAD =           0.0000         CONSTANT HEAD =           0.0000
               WELLS =           0.0000                 WELLS =           0.0000
     HEAD DEP BOUNDS =      233673.1719       HEAD DEP BOUNDS =        1852.7844

           TOTAL OUT =      233673.1719             TOTAL OUT =        1852.7844

            IN - OUT =          -0.1094              IN - OUT =       2.1362E-02

 PERCENT DISCREPANCY =          -0.00     PERCENT DISCREPANCY =           0.00






         TIME SUMMARY AT END OF TIME STEP   48 IN STRESS PERIOD    2
                    SECONDS     MINUTES      HOURS       DAYS        YEARS
                    -----------------------------------------------------------
   TIME STEP LENGTH  86400.      1440.0      24.000     1.00000     2.73785E-03
 STRESS PERIOD TIME 4.14720E+06  69120.      1152.0      48.000     0.13142    
         TOTAL TIME 4.23360E+06  70560.      1176.0      49.000     0.13415    
1
 
 SOLVING FOR HEAD 

 OUTPUT CONTROL FOR STRESS PERIOD    2   TIME STEP   49
    SAVE HEAD FOR ALL LAYERS
    SAVE DRAWDOWN FOR ALL LAYERS
    SAVE BUDGET
    PRINT HEAD FOR ALL LAYERS
    PRINT BUDGET
 UBDSV1 SAVING "         STORAGE" ON UNIT  53 AT TIME STEP 49, STRESS PERIOD   2
 UBDSV2 SAVING "   CONSTANT HEAD" ON UNIT  53 AT TIME STEP 49, STRESS PERIOD   2
 UBDSV1 SAVING "FLOW RIGHT FACE " ON UNIT  53 AT TIME STEP 49, STRESS PERIOD   2
 UBDSV1 SAVING "FLOW FRONT FACE " ON UNIT  53 AT TIME STEP 49, STRESS PERIOD   2
1
              HEAD IN LAYER   1 AT END OF TIME STEP  49 IN STRESS PERIOD    2
  ---------------------------------------------------------------------------

            1           2           3           4           5           6           7           8           9          10
 ........................................................................................................................
   1    10.00       9.984       9.948       9.851       9.615       9.094       8.069       6.286       3.575      3.6691E-02
   2    10.00       9.984       9.948       9.851       9.615       9.094       8.069       6.286       3.575      3.6691E-02
   3    10.00       9.984       9.948       9.851       9.615       9.094       8.069       6.286       3.575      3.6691E-02
   4    10.00       9.984       9.948       9.851       9.615       9.094       8.069       6.286       3.575      3.6691E-02
   5    10.00       9.984       9.948       9.851       9.615       9.094       8.069       6.286       3.575      3.6691E-02
   6    10.00       9.984       9.948       9.851       9.615       9.094       8.069       6.286       3.575      3.6691E-02
   7    10.00       9.984       9.948       9.851       9.615       9.094       8.069       6.286       3.575      3.6691E-02
   8    10.00       9.984       9.948       9.851       9.615       9.094       8.069       6.286       3.575      3.6691E-02
   9    10.00       9.984       9.948       9.851       9.615       9.094       8.069       6.286       3.575      3.6691E-02
  10    10.00       9.984       9.948       9.851       9.615       9.094       8.069       6.286       3.575      3.6691E-02

 HEAD WILL BE SAVED ON UNIT   51 AT END OF TIME STEP   49, STRESS PERIOD    2

 DRAWDOWN WILL BE SAVED ON UNIT   52 AT END OF TIME STEP   49, STRESS PERIOD    2
1
  VOLUMETRIC BUDGET FOR ENTIRE MODEL AT END OF TIME STEP   49, STRESS PERIOD   2
  ------------------------------------------------------------------------------

     CUMULATIVE VOLUMES      L**3       RATES FOR THIS TIME STEP      L**3/T
     ------------------                 ------------------------

           IN:                                      IN:
           ---                                      ---
             STORAGE =      235417.8281               STORAGE =        1825.3088
       CONSTANT HEAD =           0.0000         CONSTANT HEAD =           0.0000
               WELLS =           0.0000                 WELLS =           0.0000
     HEAD DEP BOUNDS =          89.7946       HEAD DEP BOUNDS =           9.2528

            TOTAL IN =      235507.6250              TOTAL IN =        1834.5616

          OUT:                                     OUT:
          ----                                     ----
             STORAGE =           0.0000               STORAGE =           0.0000
       CONSTANT HEAD =           0.0000         CONSTANT HEAD =           0.0000
               WELLS =           0.0000                 WELLS =           0.0000
     HEAD DEP BOUNDS =      235507.7500       HEAD DEP BOUNDS =        1834.5703

           TOTAL OUT =      235507.7500             TOTAL OUT =        1834.5703

            IN - OUT =          -0.1250              IN - OUT =      -8.6670E-03

 PERCENT DISCREPANCY =          -0.00     PERCENT DISCREPANCY =          -0.00






         TIME SUMMARY AT END OF TIME STEP   49 IN STRESS PERIOD    2
                    SECONDS     MINUTES      HOURS       DAYS        YEARS
                    -----------------------------------------------------------
   TIME STEP LENGTH  86400.      1440.0      24.000     1.00000     2.73785E-03
 STRESS PERIOD TIME 4.23360E+06  70560.      1176.0      49.000     0.13415    
         TOTAL TIME 4.32000E+06  72000.      1200.0      50.000     0.13689    
1
 
 SOLVING FOR HEAD 

 OUTPUT CONTROL FOR STRESS PERIOD    2   TIME STEP   50
    SAVE HEAD FOR ALL LAYERS
    SAVE DRAWDOWN FOR ALL LAYERS
    SAVE BUDGET
    PRINT HEAD FOR ALL LAYERS
    PRINT BUDGET
 UBDSV1 SAVING "         STORAGE" ON UNIT  53 AT TIME STEP 50, STRESS PERIOD   2
 UBDSV2 SAVING "   CONSTANT HEAD" ON UNIT  53 AT TIME STEP 50, STRESS PERIOD   2
 UBDSV1 SAVING "FLOW RIGHT FACE " ON UNIT  53 AT TIME STEP 50, STRESS PERIOD   2
 UBDSV1 SAVING "FLOW FRONT FACE " ON UNIT  53 AT TIME STEP 50, STRESS PERIOD   2
1
              HEAD IN LAYER   1 AT END OF TIME STEP  50 IN STRESS PERIOD    2
  ---------------------------------------------------------------------------

            1           2           3           4           5           6           7           8           9          10
 ........................................................................................................................
   1    10.00       9.983       9.944       9.843       9.598       9.065       8.027       6.241       3.542      3.6338E-02
   2    10.00       9.983       9.944       9.843       9.598       9.065       8.027       6.241       3.542      3.6338E-02
   3    10.00       9.983       9.944       9.843       9.598       9.065       8.027       6.241       3.542      3.6338E-02
   4    10.00       9.983       9.944       9.843       9.598       9.065       8.027       6.241       3.542      3.6338E-02
   5    10.00       9.983       9.944       9.843       9.598       9.065       8.027       6.241       3.542      3.6338E-02
   6    10.00       9.983       9.944       9.843       9.598       9.065       8.027       6.241       3.542      3.6338E-02
   7    10.00       9.983       9.944       9.843       9.598       9.065       8.027       6.241       3.542      3.6338E-02
   8    10.00       9.983       9.944       9.843       9.598       9.065       8.027       6.241       3.542      3.6338E-02
   9    10.00       9.983       9.944       9.843       9.598       9.065       8.027       6.241       3.542      3.6338E-02
  10    10.00       9.983       9.944       9.843       9.598       9.065       8.027       6.241       3.542      3.6338E-02

 HEAD WILL BE SAVED ON UNIT   51 AT END OF TIME STEP   50, STRESS PERIOD    2

 DRAWDOWN WILL BE SAVED ON UNIT   52 AT END OF TIME STEP   50, STRESS PERIOD    2
1
  VOLUMETRIC BUDGET FOR ENTIRE MODEL AT END OF TIME STEP   50, STRESS PERIOD   2
  ------------------------------------------------------------------------------

     CUMULATIVE VOLUMES      L**3       RATES FOR THIS TIME STEP      L**3/T
     ------------------                 ------------------------

           IN:                                      IN:
           ---                                      ---
             STORAGE =      237224.6719               STORAGE =        1806.8491
       CONSTANT HEAD =           0.0000         CONSTANT HEAD =           0.0000
               WELLS =           0.0000                 WELLS =           0.0000
     HEAD DEP BOUNDS =          99.8543       HEAD DEP BOUNDS =          10.0598

            TOTAL IN =      237324.5312              TOTAL IN =        1816.9089

          OUT:                                     OUT:
          ----                                     ----
             STORAGE =           0.0000               STORAGE =           0.0000
       CONSTANT HEAD =           0.0000         CONSTANT HEAD =           0.0000
               WELLS =           0.0000                 WELLS =           0.0000
     HEAD DEP BOUNDS =      237324.6250       HEAD DEP BOUNDS =        1816.8751

           TOTAL OUT =      237324.6250             TOTAL OUT =        1816.8751

            IN - OUT =      -9.3750E-02              IN - OUT =       3.3813E-02

 PERCENT DISCREPANCY =          -0.00     PERCENT DISCREPANCY =           0.00






         TIME SUMMARY AT END OF TIME STEP   50 IN STRESS PERIOD    2
                    SECONDS     MINUTES      HOURS       DAYS        YEARS
                    -----------------------------------------------------------
   TIME STEP LENGTH  86400.      1440.0      24.000     1.00000     2.73785E-03
 STRESS PERIOD TIME 4.32000E+06  72000.      1200.0      50.000     0.13689    
         TOTAL TIME 4.40640E+06  73440.      1224.0      51.000     0.13963    
1
 
 SOLVING FOR HEAD 

 OUTPUT CONTROL FOR STRESS PERIOD    2   TIME STEP   51
    SAVE HEAD FOR ALL LAYERS
    SAVE DRAWDOWN FOR ALL LAYERS
    SAVE BUDGET
    PRINT HEAD FOR ALL LAYERS
    PRINT BUDGET
 UBDSV1 SAVING "         STORAGE" ON UNIT  53 AT TIME STEP 51, STRESS PERIOD   2
 UBDSV2 SAVING "   CONSTANT HEAD" ON UNIT  53 AT TIME STEP 51, STRESS PERIOD   2
 UBDSV1 SAVING "FLOW RIGHT FACE " ON UNIT  53 AT TIME STEP 51, STRESS PERIOD   2
 UBDSV1 SAVING "FLOW FRONT FACE " ON UNIT  53 AT TIME STEP 51, STRESS PERIOD   2
1
              HEAD IN LAYER   1 AT END OF TIME STEP  51 IN STRESS PERIOD    2
  ---------------------------------------------------------------------------

            1           2           3           4           5           6           7           8           9          10
 ........................................................................................................................
   1    10.00       9.981       9.940       9.834       9.581       9.036       7.987       6.195       3.509      3.5994E-02
   2    10.00       9.981       9.940       9.834       9.581       9.036       7.987       6.195       3.509      3.5994E-02
   3    10.00       9.981       9.940       9.834       9.581       9.036       7.987       6.195       3.509      3.5994E-02
   4    10.00       9.981       9.940       9.834       9.581       9.036       7.987       6.195       3.509      3.5994E-02
   5    10.00       9.981       9.940       9.834       9.581       9.036       7.987       6.195       3.509      3.5994E-02
   6    10.00       9.981       9.940       9.834       9.581       9.036       7.987       6.195       3.509      3.5994E-02
   7    10.00       9.981       9.940       9.834       9.581       9.036       7.987       6.195       3.509      3.5994E-02
   8    10.00       9.981       9.940       9.834       9.581       9.036       7.987       6.195       3.509      3.5994E-02
   9    10.00       9.981       9.940       9.834       9.581       9.036       7.987       6.195       3.509      3.5994E-02
  10    10.00       9.981       9.940       9.834       9.581       9.036       7.987       6.195       3.509      3.5994E-02

 HEAD WILL BE SAVED ON UNIT   51 AT END OF TIME STEP   51, STRESS PERIOD    2

 DRAWDOWN WILL BE SAVED ON UNIT   52 AT END OF TIME STEP   51, STRESS PERIOD    2
1
  VOLUMETRIC BUDGET FOR ENTIRE MODEL AT END OF TIME STEP   51, STRESS PERIOD   2
  ------------------------------------------------------------------------------

     CUMULATIVE VOLUMES      L**3       RATES FOR THIS TIME STEP      L**3/T
     ------------------                 ------------------------

           IN:                                      IN:
           ---                                      ---
             STORAGE =      239013.5156               STORAGE =        1788.8363
       CONSTANT HEAD =           0.0000         CONSTANT HEAD =           0.0000
               WELLS =           0.0000                 WELLS =           0.0000
     HEAD DEP BOUNDS =         110.7548       HEAD DEP BOUNDS =          10.9004

            TOTAL IN =      239124.2656              TOTAL IN =        1799.7367

          OUT:                                     OUT:
          ----                                     ----
             STORAGE =           0.0000               STORAGE =           0.0000
       CONSTANT HEAD =           0.0000         CONSTANT HEAD =           0.0000
               WELLS =           0.0000                 WELLS =           0.0000
     HEAD DEP BOUNDS =      239124.3125       HEAD DEP BOUNDS =        1799.6797

           TOTAL OUT =      239124.3125             TOTAL OUT =        1799.6797

            IN - OUT =      -4.6875E-02              IN - OUT =       5.7007E-02

 PERCENT DISCREPANCY =          -0.00     PERCENT DISCREPANCY =           0.00






         TIME SUMMARY AT END OF TIME STEP   51 IN STRESS PERIOD    2
                    SECONDS     MINUTES      HOURS       DAYS        YEARS
                    -----------------------------------------------------------
   TIME STEP LENGTH  86400.      1440.0      24.000     1.00000     2.73785E-03
 STRESS PERIOD TIME 4.40640E+06  73440.      1224.0      51.000     0.13963    
         TOTAL TIME 4.49280E+06  74880.      1248.0      52.000     0.14237    
1
 
 SOLVING FOR HEAD 

 OUTPUT CONTROL FOR STRESS PERIOD    2   TIME STEP   52
    SAVE HEAD FOR ALL LAYERS
    SAVE DRAWDOWN FOR ALL LAYERS
    SAVE BUDGET
    PRINT HEAD FOR ALL LAYERS
    PRINT BUDGET
 UBDSV1 SAVING "         STORAGE" ON UNIT  53 AT TIME STEP 52, STRESS PERIOD   2
 UBDSV2 SAVING "   CONSTANT HEAD" ON UNIT  53 AT TIME STEP 52, STRESS PERIOD   2
 UBDSV1 SAVING "FLOW RIGHT FACE " ON UNIT  53 AT TIME STEP 52, STRESS PERIOD   2
 UBDSV1 SAVING "FLOW FRONT FACE " ON UNIT  53 AT TIME STEP 52, STRESS PERIOD   2
1
              HEAD IN LAYER   1 AT END OF TIME STEP  52 IN STRESS PERIOD    2
  ---------------------------------------------------------------------------

            1           2           3           4           5           6           7           8           9          10
 ........................................................................................................................
   1    10.00       9.980       9.936       9.825       9.563       9.007       7.946       6.151       3.478      3.5659E-02
   2    10.00       9.980       9.936       9.825       9.563       9.007       7.946       6.151       3.478      3.5659E-02
   3    10.00       9.980       9.936       9.825       9.563       9.007       7.946       6.151       3.478      3.5659E-02
   4    10.00       9.980       9.936       9.825       9.563       9.007       7.946       6.151       3.478      3.5659E-02
   5    10.00       9.980       9.936       9.825       9.563       9.007       7.946       6.151       3.478      3.5659E-02
   6    10.00       9.980       9.936       9.825       9.563       9.007       7.946       6.151       3.478      3.5659E-02
   7    10.00       9.980       9.936       9.825       9.563       9.007       7.946       6.151       3.478      3.5659E-02
   8    10.00       9.980       9.936       9.825       9.563       9.007       7.946       6.151       3.478      3.5659E-02
   9    10.00       9.980       9.936       9.825       9.563       9.007       7.946       6.151       3.478      3.5659E-02
  10    10.00       9.980       9.936       9.825       9.563       9.007       7.946       6.151       3.478      3.5659E-02

 HEAD WILL BE SAVED ON UNIT   51 AT END OF TIME STEP   52, STRESS PERIOD    2

 DRAWDOWN WILL BE SAVED ON UNIT   52 AT END OF TIME STEP   52, STRESS PERIOD    2
1
  VOLUMETRIC BUDGET FOR ENTIRE MODEL AT END OF TIME STEP   52, STRESS PERIOD   2
  ------------------------------------------------------------------------------

     CUMULATIVE VOLUMES      L**3       RATES FOR THIS TIME STEP      L**3/T
     ------------------                 ------------------------

           IN:                                      IN:
           ---                                      ---
             STORAGE =      240784.7500               STORAGE =        1771.2338
       CONSTANT HEAD =           0.0000         CONSTANT HEAD =           0.0000
               WELLS =           0.0000                 WELLS =           0.0000
     HEAD DEP BOUNDS =         122.4635       HEAD DEP BOUNDS =          11.7088

            TOTAL IN =      240907.2188              TOTAL IN =        1782.9425

          OUT:                                     OUT:
          ----                                     ----
             STORAGE =           0.0000               STORAGE =           0.0000
       CONSTANT HEAD =           0.0000         CONSTANT HEAD =           0.0000
               WELLS =           0.0000                 WELLS =           0.0000
     HEAD DEP BOUNDS =      240907.2656       HEAD DEP BOUNDS =        1782.9489

           TOTAL OUT =      240907.2656             TOTAL OUT =        1782.9489

            IN - OUT =      -4.6875E-02              IN - OUT =      -6.3477E-03

 PERCENT DISCREPANCY =          -0.00     PERCENT DISCREPANCY =          -0.00






         TIME SUMMARY AT END OF TIME STEP   52 IN STRESS PERIOD    2
                    SECONDS     MINUTES      HOURS       DAYS        YEARS
                    -----------------------------------------------------------
   TIME STEP LENGTH  86400.      1440.0      24.000     1.00000     2.73785E-03
 STRESS PERIOD TIME 4.49280E+06  74880.      1248.0      52.000     0.14237    
         TOTAL TIME 4.57920E+06  76320.      1272.0      53.000     0.14511    
1
 
 SOLVING FOR HEAD 

 OUTPUT CONTROL FOR STRESS PERIOD    2   TIME STEP   53
    SAVE HEAD FOR ALL LAYERS
    SAVE DRAWDOWN FOR ALL LAYERS
    SAVE BUDGET
    PRINT HEAD FOR ALL LAYERS
    PRINT BUDGET
 UBDSV1 SAVING "         STORAGE" ON UNIT  53 AT TIME STEP 53, STRESS PERIOD   2
 UBDSV2 SAVING "   CONSTANT HEAD" ON UNIT  53 AT TIME STEP 53, STRESS PERIOD   2
 UBDSV1 SAVING "FLOW RIGHT FACE " ON UNIT  53 AT TIME STEP 53, STRESS PERIOD   2
 UBDSV1 SAVING "FLOW FRONT FACE " ON UNIT  53 AT TIME STEP 53, STRESS PERIOD   2
1
              HEAD IN LAYER   1 AT END OF TIME STEP  53 IN STRESS PERIOD    2
  ---------------------------------------------------------------------------

            1           2           3           4           5           6           7           8           9          10
 ........................................................................................................................
   1    10.00       9.979       9.932       9.816       9.546       8.978       7.906       6.108       3.447      3.5334E-02
   2    10.00       9.979       9.932       9.816       9.546       8.978       7.906       6.108       3.447      3.5334E-02
   3    10.00       9.979       9.932       9.816       9.546       8.978       7.906       6.108       3.447      3.5334E-02
   4    10.00       9.979       9.932       9.816       9.546       8.978       7.906       6.108       3.447      3.5334E-02
   5    10.00       9.979       9.932       9.816       9.546       8.978       7.906       6.108       3.447      3.5334E-02
   6    10.00       9.979       9.932       9.816       9.546       8.978       7.906       6.108       3.447      3.5334E-02
   7    10.00       9.979       9.932       9.816       9.546       8.978       7.906       6.108       3.447      3.5334E-02
   8    10.00       9.979       9.932       9.816       9.546       8.978       7.906       6.108       3.447      3.5334E-02
   9    10.00       9.979       9.932       9.816       9.546       8.978       7.906       6.108       3.447      3.5334E-02
  10    10.00       9.979       9.932       9.816       9.546       8.978       7.906       6.108       3.447      3.5334E-02

 HEAD WILL BE SAVED ON UNIT   51 AT END OF TIME STEP   53, STRESS PERIOD    2

 DRAWDOWN WILL BE SAVED ON UNIT   52 AT END OF TIME STEP   53, STRESS PERIOD    2
1
  VOLUMETRIC BUDGET FOR ENTIRE MODEL AT END OF TIME STEP   53, STRESS PERIOD   2
  ------------------------------------------------------------------------------

     CUMULATIVE VOLUMES      L**3       RATES FOR THIS TIME STEP      L**3/T
     ------------------                 ------------------------

           IN:                                      IN:
           ---                                      ---
             STORAGE =      242538.8125               STORAGE =        1754.0552
       CONSTANT HEAD =           0.0000         CONSTANT HEAD =           0.0000
               WELLS =           0.0000                 WELLS =           0.0000
     HEAD DEP BOUNDS =         135.0811       HEAD DEP BOUNDS =          12.6176

            TOTAL IN =      242673.8906              TOTAL IN =        1766.6727

          OUT:                                     OUT:
          ----                                     ----
             STORAGE =           0.0000               STORAGE =           0.0000
       CONSTANT HEAD =           0.0000         CONSTANT HEAD =           0.0000
               WELLS =           0.0000                 WELLS =           0.0000
     HEAD DEP BOUNDS =      242673.9531       HEAD DEP BOUNDS =        1766.6819

           TOTAL OUT =      242673.9531             TOTAL OUT =        1766.6819

            IN - OUT =      -6.2500E-02              IN - OUT =      -9.1553E-03

 PERCENT DISCREPANCY =          -0.00     PERCENT DISCREPANCY =          -0.00






         TIME SUMMARY AT END OF TIME STEP   53 IN STRESS PERIOD    2
                    SECONDS     MINUTES      HOURS       DAYS        YEARS
                    -----------------------------------------------------------
   TIME STEP LENGTH  86400.      1440.0      24.000     1.00000     2.73785E-03
 STRESS PERIOD TIME 4.57920E+06  76320.      1272.0      53.000     0.14511    
         TOTAL TIME 4.66560E+06  77760.      1296.0      54.000     0.14784    
1
 
 SOLVING FOR HEAD 

 OUTPUT CONTROL FOR STRESS PERIOD    2   TIME STEP   54
    SAVE HEAD FOR ALL LAYERS
    SAVE DRAWDOWN FOR ALL LAYERS
    SAVE BUDGET
    PRINT HEAD FOR ALL LAYERS
    PRINT BUDGET
 UBDSV1 SAVING "         STORAGE" ON UNIT  53 AT TIME STEP 54, STRESS PERIOD   2
 UBDSV2 SAVING "   CONSTANT HEAD" ON UNIT  53 AT TIME STEP 54, STRESS PERIOD   2
 UBDSV1 SAVING "FLOW RIGHT FACE " ON UNIT  53 AT TIME STEP 54, STRESS PERIOD   2
 UBDSV1 SAVING "FLOW FRONT FACE " ON UNIT  53 AT TIME STEP 54, STRESS PERIOD   2
1
              HEAD IN LAYER   1 AT END OF TIME STEP  54 IN STRESS PERIOD    2
  ---------------------------------------------------------------------------

            1           2           3           4           5           6           7           8           9          10
 ........................................................................................................................
   1    10.00       9.977       9.928       9.806       9.528       8.949       7.867       6.066       3.417      3.5017E-02
   2    10.00       9.977       9.928       9.806       9.528       8.949       7.867       6.066       3.417      3.5017E-02
   3    10.00       9.977       9.928       9.806       9.528       8.949       7.867       6.066       3.417      3.5017E-02
   4    10.00       9.977       9.928       9.806       9.528       8.949       7.867       6.066       3.417      3.5017E-02
   5    10.00       9.977       9.928       9.806       9.528       8.949       7.867       6.066       3.417      3.5017E-02
   6    10.00       9.977       9.928       9.806       9.528       8.949       7.867       6.066       3.417      3.5017E-02
   7    10.00       9.977       9.928       9.806       9.528       8.949       7.867       6.066       3.417      3.5017E-02
   8    10.00       9.977       9.928       9.806       9.528       8.949       7.867       6.066       3.417      3.5017E-02
   9    10.00       9.977       9.928       9.806       9.528       8.949       7.867       6.066       3.417      3.5017E-02
  10    10.00       9.977       9.928       9.806       9.528       8.949       7.867       6.066       3.417      3.5017E-02

 HEAD WILL BE SAVED ON UNIT   51 AT END OF TIME STEP   54, STRESS PERIOD    2

 DRAWDOWN WILL BE SAVED ON UNIT   52 AT END OF TIME STEP   54, STRESS PERIOD    2
1
  VOLUMETRIC BUDGET FOR ENTIRE MODEL AT END OF TIME STEP   54, STRESS PERIOD   2
  ------------------------------------------------------------------------------

     CUMULATIVE VOLUMES      L**3       RATES FOR THIS TIME STEP      L**3/T
     ------------------                 ------------------------

           IN:                                      IN:
           ---                                      ---
             STORAGE =      244276.0938               STORAGE =        1737.2889
       CONSTANT HEAD =           0.0000         CONSTANT HEAD =           0.0000
               WELLS =           0.0000                 WELLS =           0.0000
     HEAD DEP BOUNDS =         148.6421       HEAD DEP BOUNDS =          13.5609

            TOTAL IN =      244424.7344              TOTAL IN =        1750.8499

          OUT:                                     OUT:
          ----                                     ----
             STORAGE =           0.0000               STORAGE =           0.0000
       CONSTANT HEAD =           0.0000         CONSTANT HEAD =           0.0000
               WELLS =           0.0000                 WELLS =           0.0000
     HEAD DEP BOUNDS =      244424.7969       HEAD DEP BOUNDS =        1750.8457

           TOTAL OUT =      244424.7969             TOTAL OUT =        1750.8457

            IN - OUT =      -6.2500E-02              IN - OUT =       4.1504E-03

 PERCENT DISCREPANCY =          -0.00     PERCENT DISCREPANCY =           0.00






         TIME SUMMARY AT END OF TIME STEP   54 IN STRESS PERIOD    2
                    SECONDS     MINUTES      HOURS       DAYS        YEARS
                    -----------------------------------------------------------
   TIME STEP LENGTH  86400.      1440.0      24.000     1.00000     2.73785E-03
 STRESS PERIOD TIME 4.66560E+06  77760.      1296.0      54.000     0.14784    
         TOTAL TIME 4.75200E+06  79200.      1320.0      55.000     0.15058    
1
 
 SOLVING FOR HEAD 

 OUTPUT CONTROL FOR STRESS PERIOD    2   TIME STEP   55
    SAVE HEAD FOR ALL LAYERS
    SAVE DRAWDOWN FOR ALL LAYERS
    SAVE BUDGET
    PRINT HEAD FOR ALL LAYERS
    PRINT BUDGET
 UBDSV1 SAVING "         STORAGE" ON UNIT  53 AT TIME STEP 55, STRESS PERIOD   2
 UBDSV2 SAVING "   CONSTANT HEAD" ON UNIT  53 AT TIME STEP 55, STRESS PERIOD   2
 UBDSV1 SAVING "FLOW RIGHT FACE " ON UNIT  53 AT TIME STEP 55, STRESS PERIOD   2
 UBDSV1 SAVING "FLOW FRONT FACE " ON UNIT  53 AT TIME STEP 55, STRESS PERIOD   2
1
              HEAD IN LAYER   1 AT END OF TIME STEP  55 IN STRESS PERIOD    2
  ---------------------------------------------------------------------------

            1           2           3           4           5           6           7           8           9          10
 ........................................................................................................................
   1    10.00       9.975       9.923       9.797       9.510       8.920       7.828       6.024       3.388      3.4708E-02
   2    10.00       9.975       9.923       9.797       9.510       8.920       7.828       6.024       3.388      3.4708E-02
   3    10.00       9.975       9.923       9.797       9.510       8.920       7.828       6.024       3.388      3.4708E-02
   4    10.00       9.975       9.923       9.797       9.510       8.920       7.828       6.024       3.388      3.4708E-02
   5    10.00       9.975       9.923       9.797       9.510       8.920       7.828       6.024       3.388      3.4708E-02
   6    10.00       9.975       9.923       9.797       9.510       8.920       7.828       6.024       3.388      3.4708E-02
   7    10.00       9.975       9.923       9.797       9.510       8.920       7.828       6.024       3.388      3.4708E-02
   8    10.00       9.975       9.923       9.797       9.510       8.920       7.828       6.024       3.388      3.4708E-02
   9    10.00       9.975       9.923       9.797       9.510       8.920       7.828       6.024       3.388      3.4708E-02
  10    10.00       9.975       9.923       9.797       9.510       8.920       7.828       6.024       3.388      3.4708E-02

 HEAD WILL BE SAVED ON UNIT   51 AT END OF TIME STEP   55, STRESS PERIOD    2

 DRAWDOWN WILL BE SAVED ON UNIT   52 AT END OF TIME STEP   55, STRESS PERIOD    2
1
  VOLUMETRIC BUDGET FOR ENTIRE MODEL AT END OF TIME STEP   55, STRESS PERIOD   2
  ------------------------------------------------------------------------------

     CUMULATIVE VOLUMES      L**3       RATES FOR THIS TIME STEP      L**3/T
     ------------------                 ------------------------

           IN:                                      IN:
           ---                                      ---
             STORAGE =      245996.9844               STORAGE =        1720.8949
       CONSTANT HEAD =           0.0000         CONSTANT HEAD =           0.0000
               WELLS =           0.0000                 WELLS =           0.0000
     HEAD DEP BOUNDS =         163.1812       HEAD DEP BOUNDS =          14.5391

            TOTAL IN =      246160.1719              TOTAL IN =        1735.4340

          OUT:                                     OUT:
          ----                                     ----
             STORAGE =           0.0000               STORAGE =           0.0000
       CONSTANT HEAD =           0.0000         CONSTANT HEAD =           0.0000
               WELLS =           0.0000                 WELLS =           0.0000
     HEAD DEP BOUNDS =      246160.2188       HEAD DEP BOUNDS =        1735.4170

           TOTAL OUT =      246160.2188             TOTAL OUT =        1735.4170

            IN - OUT =      -4.6875E-02              IN - OUT =       1.6968E-02

 PERCENT DISCREPANCY =          -0.00     PERCENT DISCREPANCY =           0.00






         TIME SUMMARY AT END OF TIME STEP   55 IN STRESS PERIOD    2
                    SECONDS     MINUTES      HOURS       DAYS        YEARS
                    -----------------------------------------------------------
   TIME STEP LENGTH  86400.      1440.0      24.000     1.00000     2.73785E-03
 STRESS PERIOD TIME 4.75200E+06  79200.      1320.0      55.000     0.15058    
         TOTAL TIME 4.83840E+06  80640.      1344.0      56.000     0.15332    
1
 
 SOLVING FOR HEAD 

 OUTPUT CONTROL FOR STRESS PERIOD    2   TIME STEP   56
    SAVE HEAD FOR ALL LAYERS
    SAVE DRAWDOWN FOR ALL LAYERS
    SAVE BUDGET
    PRINT HEAD FOR ALL LAYERS
    PRINT BUDGET
 UBDSV1 SAVING "         STORAGE" ON UNIT  53 AT TIME STEP 56, STRESS PERIOD   2
 UBDSV2 SAVING "   CONSTANT HEAD" ON UNIT  53 AT TIME STEP 56, STRESS PERIOD   2
 UBDSV1 SAVING "FLOW RIGHT FACE " ON UNIT  53 AT TIME STEP 56, STRESS PERIOD   2
 UBDSV1 SAVING "FLOW FRONT FACE " ON UNIT  53 AT TIME STEP 56, STRESS PERIOD   2
1
              HEAD IN LAYER   1 AT END OF TIME STEP  56 IN STRESS PERIOD    2
  ---------------------------------------------------------------------------

            1           2           3           4           5           6           7           8           9          10
 ........................................................................................................................
   1    10.00       9.974       9.919       9.787       9.492       8.891       7.790       5.984       3.360      3.4408E-02
   2    10.00       9.974       9.919       9.787       9.492       8.891       7.790       5.984       3.360      3.4408E-02
   3    10.00       9.974       9.919       9.787       9.492       8.891       7.790       5.984       3.360      3.4408E-02
   4    10.00       9.974       9.919       9.787       9.492       8.891       7.790       5.984       3.360      3.4408E-02
   5    10.00       9.974       9.919       9.787       9.492       8.891       7.790       5.984       3.360      3.4408E-02
   6    10.00       9.974       9.919       9.787       9.492       8.891       7.790       5.984       3.360      3.4408E-02
   7    10.00       9.974       9.919       9.787       9.492       8.891       7.790       5.984       3.360      3.4408E-02
   8    10.00       9.974       9.919       9.787       9.492       8.891       7.790       5.984       3.360      3.4408E-02
   9    10.00       9.974       9.919       9.787       9.492       8.891       7.790       5.984       3.360      3.4408E-02
  10    10.00       9.974       9.919       9.787       9.492       8.891       7.790       5.984       3.360      3.4408E-02

 HEAD WILL BE SAVED ON UNIT   51 AT END OF TIME STEP   56, STRESS PERIOD    2

 DRAWDOWN WILL BE SAVED ON UNIT   52 AT END OF TIME STEP   56, STRESS PERIOD    2
1
  VOLUMETRIC BUDGET FOR ENTIRE MODEL AT END OF TIME STEP   56, STRESS PERIOD   2
  ------------------------------------------------------------------------------

     CUMULATIVE VOLUMES      L**3       RATES FOR THIS TIME STEP      L**3/T
     ------------------                 ------------------------

           IN:                                      IN:
           ---                                      ---
             STORAGE =      247701.8281               STORAGE =        1704.8442
       CONSTANT HEAD =           0.0000         CONSTANT HEAD =           0.0000
               WELLS =           0.0000                 WELLS =           0.0000
     HEAD DEP BOUNDS =         178.7329       HEAD DEP BOUNDS =          15.5517

            TOTAL IN =      247880.5625              TOTAL IN =        1720.3959

          OUT:                                     OUT:
          ----                                     ----
             STORAGE =           0.0000               STORAGE =           0.0000
       CONSTANT HEAD =           0.0000         CONSTANT HEAD =           0.0000
               WELLS =           0.0000                 WELLS =           0.0000
     HEAD DEP BOUNDS =      247880.6094       HEAD DEP BOUNDS =        1720.3894

           TOTAL OUT =      247880.6094             TOTAL OUT =        1720.3894

            IN - OUT =      -4.6875E-02              IN - OUT =       6.4697E-03

 PERCENT DISCREPANCY =          -0.00     PERCENT DISCREPANCY =           0.00






         TIME SUMMARY AT END OF TIME STEP   56 IN STRESS PERIOD    2
                    SECONDS     MINUTES      HOURS       DAYS        YEARS
                    -----------------------------------------------------------
   TIME STEP LENGTH  86400.      1440.0      24.000     1.00000     2.73785E-03
 STRESS PERIOD TIME 4.83840E+06  80640.      1344.0      56.000     0.15332    
         TOTAL TIME 4.92480E+06  82080.      1368.0      57.000     0.15606    
1
 
 SOLVING FOR HEAD 

 OUTPUT CONTROL FOR STRESS PERIOD    2   TIME STEP   57
    SAVE HEAD FOR ALL LAYERS
    SAVE DRAWDOWN FOR ALL LAYERS
    SAVE BUDGET
    PRINT HEAD FOR ALL LAYERS
    PRINT BUDGET
 UBDSV1 SAVING "         STORAGE" ON UNIT  53 AT TIME STEP 57, STRESS PERIOD   2
 UBDSV2 SAVING "   CONSTANT HEAD" ON UNIT  53 AT TIME STEP 57, STRESS PERIOD   2
 UBDSV1 SAVING "FLOW RIGHT FACE " ON UNIT  53 AT TIME STEP 57, STRESS PERIOD   2
 UBDSV1 SAVING "FLOW FRONT FACE " ON UNIT  53 AT TIME STEP 57, STRESS PERIOD   2
1
              HEAD IN LAYER   1 AT END OF TIME STEP  57 IN STRESS PERIOD    2
  ---------------------------------------------------------------------------

            1           2           3           4           5           6           7           8           9          10
 ........................................................................................................................
   1    10.00       9.972       9.914       9.777       9.474       8.863       7.752       5.944       3.332      3.4115E-02
   2    10.00       9.972       9.914       9.777       9.474       8.863       7.752       5.944       3.332      3.4115E-02
   3    10.00       9.972       9.914       9.777       9.474       8.863       7.752       5.944       3.332      3.4115E-02
   4    10.00       9.972       9.914       9.777       9.474       8.863       7.752       5.944       3.332      3.4115E-02
   5    10.00       9.972       9.914       9.777       9.474       8.863       7.752       5.944       3.332      3.4115E-02
   6    10.00       9.972       9.914       9.777       9.474       8.863       7.752       5.944       3.332      3.4115E-02
   7    10.00       9.972       9.914       9.777       9.474       8.863       7.752       5.944       3.332      3.4115E-02
   8    10.00       9.972       9.914       9.777       9.474       8.863       7.752       5.944       3.332      3.4115E-02
   9    10.00       9.972       9.914       9.777       9.474       8.863       7.752       5.944       3.332      3.4115E-02
  10    10.00       9.972       9.914       9.777       9.474       8.863       7.752       5.944       3.332      3.4115E-02

 HEAD WILL BE SAVED ON UNIT   51 AT END OF TIME STEP   57, STRESS PERIOD    2

 DRAWDOWN WILL BE SAVED ON UNIT   52 AT END OF TIME STEP   57, STRESS PERIOD    2
1
  VOLUMETRIC BUDGET FOR ENTIRE MODEL AT END OF TIME STEP   57, STRESS PERIOD   2
  ------------------------------------------------------------------------------

     CUMULATIVE VOLUMES      L**3       RATES FOR THIS TIME STEP      L**3/T
     ------------------                 ------------------------

           IN:                                      IN:
           ---                                      ---
             STORAGE =      249390.9531               STORAGE =        1689.1173
       CONSTANT HEAD =           0.0000         CONSTANT HEAD =           0.0000
               WELLS =           0.0000                 WELLS =           0.0000
     HEAD DEP BOUNDS =         195.3319       HEAD DEP BOUNDS =          16.5990

            TOTAL IN =      249586.2812              TOTAL IN =        1705.7163

          OUT:                                     OUT:
          ----                                     ----
             STORAGE =           0.0000               STORAGE =           0.0000
       CONSTANT HEAD =           0.0000         CONSTANT HEAD =           0.0000
               WELLS =           0.0000                 WELLS =           0.0000
     HEAD DEP BOUNDS =      249586.3438       HEAD DEP BOUNDS =        1705.7416

           TOTAL OUT =      249586.3438             TOTAL OUT =        1705.7416

            IN - OUT =      -6.2500E-02              IN - OUT =      -2.5269E-02

 PERCENT DISCREPANCY =          -0.00     PERCENT DISCREPANCY =          -0.00






         TIME SUMMARY AT END OF TIME STEP   57 IN STRESS PERIOD    2
                    SECONDS     MINUTES      HOURS       DAYS        YEARS
                    -----------------------------------------------------------
   TIME STEP LENGTH  86400.      1440.0      24.000     1.00000     2.73785E-03
 STRESS PERIOD TIME 4.92480E+06  82080.      1368.0      57.000     0.15606    
         TOTAL TIME 5.01120E+06  83520.      1392.0      58.000     0.15880    
1
 
 SOLVING FOR HEAD 

 OUTPUT CONTROL FOR STRESS PERIOD    2   TIME STEP   58
    SAVE HEAD FOR ALL LAYERS
    SAVE DRAWDOWN FOR ALL LAYERS
    SAVE BUDGET
    PRINT HEAD FOR ALL LAYERS
    PRINT BUDGET
 UBDSV1 SAVING "         STORAGE" ON UNIT  53 AT TIME STEP 58, STRESS PERIOD   2
 UBDSV2 SAVING "   CONSTANT HEAD" ON UNIT  53 AT TIME STEP 58, STRESS PERIOD   2
 UBDSV1 SAVING "FLOW RIGHT FACE " ON UNIT  53 AT TIME STEP 58, STRESS PERIOD   2
 UBDSV1 SAVING "FLOW FRONT FACE " ON UNIT  53 AT TIME STEP 58, STRESS PERIOD   2
1
              HEAD IN LAYER   1 AT END OF TIME STEP  58 IN STRESS PERIOD    2
  ---------------------------------------------------------------------------

            1           2           3           4           5           6           7           8           9          10
 ........................................................................................................................
   1    10.00       9.970       9.909       9.767       9.456       8.834       7.714       5.905       3.305      3.3829E-02
   2    10.00       9.970       9.909       9.767       9.456       8.834       7.714       5.905       3.305      3.3829E-02
   3    10.00       9.970       9.909       9.767       9.456       8.834       7.714       5.905       3.305      3.3829E-02
   4    10.00       9.970       9.909       9.767       9.456       8.834       7.714       5.905       3.305      3.3829E-02
   5    10.00       9.970       9.909       9.767       9.456       8.834       7.714       5.905       3.305      3.3829E-02
   6    10.00       9.970       9.909       9.767       9.456       8.834       7.714       5.905       3.305      3.3829E-02
   7    10.00       9.970       9.909       9.767       9.456       8.834       7.714       5.905       3.305      3.3829E-02
   8    10.00       9.970       9.909       9.767       9.456       8.834       7.714       5.905       3.305      3.3829E-02
   9    10.00       9.970       9.909       9.767       9.456       8.834       7.714       5.905       3.305      3.3829E-02
  10    10.00       9.970       9.909       9.767       9.456       8.834       7.714       5.905       3.305      3.3829E-02

 HEAD WILL BE SAVED ON UNIT   51 AT END OF TIME STEP   58, STRESS PERIOD    2

 DRAWDOWN WILL BE SAVED ON UNIT   52 AT END OF TIME STEP   58, STRESS PERIOD    2
1
  VOLUMETRIC BUDGET FOR ENTIRE MODEL AT END OF TIME STEP   58, STRESS PERIOD   2
  ------------------------------------------------------------------------------

     CUMULATIVE VOLUMES      L**3       RATES FOR THIS TIME STEP      L**3/T
     ------------------                 ------------------------

           IN:                                      IN:
           ---                                      ---
             STORAGE =      251064.7188               STORAGE =        1673.7593
       CONSTANT HEAD =           0.0000         CONSTANT HEAD =           0.0000
               WELLS =           0.0000                 WELLS =           0.0000
     HEAD DEP BOUNDS =         213.0121       HEAD DEP BOUNDS =          17.6802

            TOTAL IN =      251277.7344              TOTAL IN =        1691.4396

          OUT:                                     OUT:
          ----                                     ----
             STORAGE =           0.0000               STORAGE =           0.0000
       CONSTANT HEAD =           0.0000         CONSTANT HEAD =           0.0000
               WELLS =           0.0000                 WELLS =           0.0000
     HEAD DEP BOUNDS =      251277.8125       HEAD DEP BOUNDS =        1691.4681

           TOTAL OUT =      251277.8125             TOTAL OUT =        1691.4681

            IN - OUT =      -7.8125E-02              IN - OUT =      -2.8564E-02

 PERCENT DISCREPANCY =          -0.00     PERCENT DISCREPANCY =          -0.00






         TIME SUMMARY AT END OF TIME STEP   58 IN STRESS PERIOD    2
                    SECONDS     MINUTES      HOURS       DAYS        YEARS
                    -----------------------------------------------------------
   TIME STEP LENGTH  86400.      1440.0      24.000     1.00000     2.73785E-03
 STRESS PERIOD TIME 5.01120E+06  83520.      1392.0      58.000     0.15880    
         TOTAL TIME 5.09760E+06  84960.      1416.0      59.000     0.16153    
1
 
 SOLVING FOR HEAD 

 OUTPUT CONTROL FOR STRESS PERIOD    2   TIME STEP   59
    SAVE HEAD FOR ALL LAYERS
    SAVE DRAWDOWN FOR ALL LAYERS
    SAVE BUDGET
    PRINT HEAD FOR ALL LAYERS
    PRINT BUDGET
 UBDSV1 SAVING "         STORAGE" ON UNIT  53 AT TIME STEP 59, STRESS PERIOD   2
 UBDSV2 SAVING "   CONSTANT HEAD" ON UNIT  53 AT TIME STEP 59, STRESS PERIOD   2
 UBDSV1 SAVING "FLOW RIGHT FACE " ON UNIT  53 AT TIME STEP 59, STRESS PERIOD   2
 UBDSV1 SAVING "FLOW FRONT FACE " ON UNIT  53 AT TIME STEP 59, STRESS PERIOD   2
1
              HEAD IN LAYER   1 AT END OF TIME STEP  59 IN STRESS PERIOD    2
  ---------------------------------------------------------------------------

            1           2           3           4           5           6           7           8           9          10
 ........................................................................................................................
   1    10.00       9.968       9.904       9.757       9.437       8.806       7.677       5.866       3.279      3.3551E-02
   2    10.00       9.968       9.904       9.757       9.437       8.806       7.677       5.866       3.279      3.3551E-02
   3    10.00       9.968       9.904       9.757       9.437       8.806       7.677       5.866       3.279      3.3551E-02
   4    10.00       9.968       9.904       9.757       9.437       8.806       7.677       5.866       3.279      3.3551E-02
   5    10.00       9.968       9.904       9.757       9.437       8.806       7.677       5.866       3.279      3.3551E-02
   6    10.00       9.968       9.904       9.757       9.437       8.806       7.677       5.866       3.279      3.3551E-02
   7    10.00       9.968       9.904       9.757       9.437       8.806       7.677       5.866       3.279      3.3551E-02
   8    10.00       9.968       9.904       9.757       9.437       8.806       7.677       5.866       3.279      3.3551E-02
   9    10.00       9.968       9.904       9.757       9.437       8.806       7.677       5.866       3.279      3.3551E-02
  10    10.00       9.968       9.904       9.757       9.437       8.806       7.677       5.866       3.279      3.3551E-02

 HEAD WILL BE SAVED ON UNIT   51 AT END OF TIME STEP   59, STRESS PERIOD    2

 DRAWDOWN WILL BE SAVED ON UNIT   52 AT END OF TIME STEP   59, STRESS PERIOD    2
1
  VOLUMETRIC BUDGET FOR ENTIRE MODEL AT END OF TIME STEP   59, STRESS PERIOD   2
  ------------------------------------------------------------------------------

     CUMULATIVE VOLUMES      L**3       RATES FOR THIS TIME STEP      L**3/T
     ------------------                 ------------------------

           IN:                                      IN:
           ---                                      ---
             STORAGE =      252723.4219               STORAGE =        1658.6991
       CONSTANT HEAD =           0.0000         CONSTANT HEAD =           0.0000
               WELLS =           0.0000                 WELLS =           0.0000
     HEAD DEP BOUNDS =         231.8747       HEAD DEP BOUNDS =          18.8625

            TOTAL IN =      252955.2969              TOTAL IN =        1677.5616

          OUT:                                     OUT:
          ----                                     ----
             STORAGE =           0.0000               STORAGE =           0.0000
       CONSTANT HEAD =           0.0000         CONSTANT HEAD =           0.0000
               WELLS =           0.0000                 WELLS =           0.0000
     HEAD DEP BOUNDS =      252955.3594       HEAD DEP BOUNDS =        1677.5413

           TOTAL OUT =      252955.3594             TOTAL OUT =        1677.5413

            IN - OUT =      -6.2500E-02              IN - OUT =       2.0386E-02

 PERCENT DISCREPANCY =          -0.00     PERCENT DISCREPANCY =           0.00






         TIME SUMMARY AT END OF TIME STEP   59 IN STRESS PERIOD    2
                    SECONDS     MINUTES      HOURS       DAYS        YEARS
                    -----------------------------------------------------------
   TIME STEP LENGTH  86400.      1440.0      24.000     1.00000     2.73785E-03
 STRESS PERIOD TIME 5.09760E+06  84960.      1416.0      59.000     0.16153    
         TOTAL TIME 5.18400E+06  86400.      1440.0      60.000     0.16427    
1
 
 SOLVING FOR HEAD 

 OUTPUT CONTROL FOR STRESS PERIOD    2   TIME STEP   60
    SAVE HEAD FOR ALL LAYERS
    SAVE DRAWDOWN FOR ALL LAYERS
    SAVE BUDGET
    PRINT HEAD FOR ALL LAYERS
    PRINT BUDGET
 UBDSV1 SAVING "         STORAGE" ON UNIT  53 AT TIME STEP 60, STRESS PERIOD   2
 UBDSV2 SAVING "   CONSTANT HEAD" ON UNIT  53 AT TIME STEP 60, STRESS PERIOD   2
 UBDSV1 SAVING "FLOW RIGHT FACE " ON UNIT  53 AT TIME STEP 60, STRESS PERIOD   2
 UBDSV1 SAVING "FLOW FRONT FACE " ON UNIT  53 AT TIME STEP 60, STRESS PERIOD   2
1
              HEAD IN LAYER   1 AT END OF TIME STEP  60 IN STRESS PERIOD    2
  ---------------------------------------------------------------------------

            1           2           3           4           5           6           7           8           9          10
 ........................................................................................................................
   1    10.00       9.966       9.899       9.746       9.419       8.778       7.641       5.829       3.253      3.3279E-02
   2    10.00       9.966       9.899       9.746       9.419       8.778       7.641       5.829       3.253      3.3279E-02
   3    10.00       9.966       9.899       9.746       9.419       8.778       7.641       5.829       3.253      3.3279E-02
   4    10.00       9.966       9.899       9.746       9.419       8.778       7.641       5.829       3.253      3.3279E-02
   5    10.00       9.966       9.899       9.746       9.419       8.778       7.641       5.829       3.253      3.3279E-02
   6    10.00       9.966       9.899       9.746       9.419       8.778       7.641       5.829       3.253      3.3279E-02
   7    10.00       9.966       9.899       9.746       9.419       8.778       7.641       5.829       3.253      3.3279E-02
   8    10.00       9.966       9.899       9.746       9.419       8.778       7.641       5.829       3.253      3.3279E-02
   9    10.00       9.966       9.899       9.746       9.419       8.778       7.641       5.829       3.253      3.3279E-02
  10    10.00       9.966       9.899       9.746       9.419       8.778       7.641       5.829       3.253      3.3279E-02

 HEAD WILL BE SAVED ON UNIT   51 AT END OF TIME STEP   60, STRESS PERIOD    2

 DRAWDOWN WILL BE SAVED ON UNIT   52 AT END OF TIME STEP   60, STRESS PERIOD    2
1
  VOLUMETRIC BUDGET FOR ENTIRE MODEL AT END OF TIME STEP   60, STRESS PERIOD   2
  ------------------------------------------------------------------------------

     CUMULATIVE VOLUMES      L**3       RATES FOR THIS TIME STEP      L**3/T
     ------------------                 ------------------------

           IN:                                      IN:
           ---                                      ---
             STORAGE =      254367.3281               STORAGE =        1643.9110
       CONSTANT HEAD =           0.0000         CONSTANT HEAD =           0.0000
               WELLS =           0.0000                 WELLS =           0.0000
     HEAD DEP BOUNDS =         251.8872       HEAD DEP BOUNDS =          20.0126

            TOTAL IN =      254619.2188              TOTAL IN =        1663.9236

          OUT:                                     OUT:
          ----                                     ----
             STORAGE =           0.0000               STORAGE =           0.0000
       CONSTANT HEAD =           0.0000         CONSTANT HEAD =           0.0000
               WELLS =           0.0000                 WELLS =           0.0000
     HEAD DEP BOUNDS =      254619.2969       HEAD DEP BOUNDS =        1663.9410

           TOTAL OUT =      254619.2969             TOTAL OUT =        1663.9410

            IN - OUT =      -7.8125E-02              IN - OUT =      -1.7456E-02

 PERCENT DISCREPANCY =          -0.00     PERCENT DISCREPANCY =          -0.00






         TIME SUMMARY AT END OF TIME STEP   60 IN STRESS PERIOD    2
                    SECONDS     MINUTES      HOURS       DAYS        YEARS
                    -----------------------------------------------------------
   TIME STEP LENGTH  86400.      1440.0      24.000     1.00000     2.73785E-03
 STRESS PERIOD TIME 5.18400E+06  86400.      1440.0      60.000     0.16427    
         TOTAL TIME 5.27040E+06  87840.      1464.0      61.000     0.16701    
1
 
 SOLVING FOR HEAD 

 OUTPUT CONTROL FOR STRESS PERIOD    2   TIME STEP   61
    SAVE HEAD FOR ALL LAYERS
    SAVE DRAWDOWN FOR ALL LAYERS
    SAVE BUDGET
    PRINT HEAD FOR ALL LAYERS
    PRINT BUDGET
 UBDSV1 SAVING "         STORAGE" ON UNIT  53 AT TIME STEP 61, STRESS PERIOD   2
 UBDSV2 SAVING "   CONSTANT HEAD" ON UNIT  53 AT TIME STEP 61, STRESS PERIOD   2
 UBDSV1 SAVING "FLOW RIGHT FACE " ON UNIT  53 AT TIME STEP 61, STRESS PERIOD   2
 UBDSV1 SAVING "FLOW FRONT FACE " ON UNIT  53 AT TIME STEP 61, STRESS PERIOD   2
1
              HEAD IN LAYER   1 AT END OF TIME STEP  61 IN STRESS PERIOD    2
  ---------------------------------------------------------------------------

            1           2           3           4           5           6           7           8           9          10
 ........................................................................................................................
   1    10.00       9.964       9.894       9.736       9.401       8.749       7.604       5.792       3.228      3.3013E-02
   2    10.00       9.964       9.894       9.736       9.401       8.749       7.604       5.792       3.228      3.3013E-02
   3    10.00       9.964       9.894       9.736       9.401       8.749       7.604       5.792       3.228      3.3013E-02
   4    10.00       9.964       9.894       9.736       9.401       8.749       7.604       5.792       3.228      3.3013E-02
   5    10.00       9.964       9.894       9.736       9.401       8.749       7.604       5.792       3.228      3.3013E-02
   6    10.00       9.964       9.894       9.736       9.401       8.749       7.604       5.792       3.228      3.3013E-02
   7    10.00       9.964       9.894       9.736       9.401       8.749       7.604       5.792       3.228      3.3013E-02
   8    10.00       9.964       9.894       9.736       9.401       8.749       7.604       5.792       3.228      3.3013E-02
   9    10.00       9.964       9.894       9.736       9.401       8.749       7.604       5.792       3.228      3.3013E-02
  10    10.00       9.964       9.894       9.736       9.401       8.749       7.604       5.792       3.228      3.3013E-02

 HEAD WILL BE SAVED ON UNIT   51 AT END OF TIME STEP   61, STRESS PERIOD    2

 DRAWDOWN WILL BE SAVED ON UNIT   52 AT END OF TIME STEP   61, STRESS PERIOD    2
1
  VOLUMETRIC BUDGET FOR ENTIRE MODEL AT END OF TIME STEP   61, STRESS PERIOD   2
  ------------------------------------------------------------------------------

     CUMULATIVE VOLUMES      L**3       RATES FOR THIS TIME STEP      L**3/T
     ------------------                 ------------------------

           IN:                                      IN:
           ---                                      ---
             STORAGE =      255996.7344               STORAGE =        1629.4092
       CONSTANT HEAD =           0.0000         CONSTANT HEAD =           0.0000
               WELLS =           0.0000                 WELLS =           0.0000
     HEAD DEP BOUNDS =         273.1503       HEAD DEP BOUNDS =          21.2631

            TOTAL IN =      256269.8906              TOTAL IN =        1650.6722

          OUT:                                     OUT:
          ----                                     ----
             STORAGE =           0.0000               STORAGE =           0.0000
       CONSTANT HEAD =           0.0000         CONSTANT HEAD =           0.0000
               WELLS =           0.0000                 WELLS =           0.0000
     HEAD DEP BOUNDS =      256269.9688       HEAD DEP BOUNDS =        1650.6644

           TOTAL OUT =      256269.9688             TOTAL OUT =        1650.6644

            IN - OUT =      -7.8125E-02              IN - OUT =       7.8125E-03

 PERCENT DISCREPANCY =          -0.00     PERCENT DISCREPANCY =           0.00






         TIME SUMMARY AT END OF TIME STEP   61 IN STRESS PERIOD    2
                    SECONDS     MINUTES      HOURS       DAYS        YEARS
                    -----------------------------------------------------------
   TIME STEP LENGTH  86400.      1440.0      24.000     1.00000     2.73785E-03
 STRESS PERIOD TIME 5.27040E+06  87840.      1464.0      61.000     0.16701    
         TOTAL TIME 5.35680E+06  89280.      1488.0      62.000     0.16975    
1
 
 SOLVING FOR HEAD 

 OUTPUT CONTROL FOR STRESS PERIOD    2   TIME STEP   62
    SAVE HEAD FOR ALL LAYERS
    SAVE DRAWDOWN FOR ALL LAYERS
    SAVE BUDGET
    PRINT HEAD FOR ALL LAYERS
    PRINT BUDGET
 UBDSV1 SAVING "         STORAGE" ON UNIT  53 AT TIME STEP 62, STRESS PERIOD   2
 UBDSV2 SAVING "   CONSTANT HEAD" ON UNIT  53 AT TIME STEP 62, STRESS PERIOD   2
 UBDSV1 SAVING "FLOW RIGHT FACE " ON UNIT  53 AT TIME STEP 62, STRESS PERIOD   2
 UBDSV1 SAVING "FLOW FRONT FACE " ON UNIT  53 AT TIME STEP 62, STRESS PERIOD   2
1
              HEAD IN LAYER   1 AT END OF TIME STEP  62 IN STRESS PERIOD    2
  ---------------------------------------------------------------------------

            1           2           3           4           5           6           7           8           9          10
 ........................................................................................................................
   1    10.00       9.962       9.888       9.725       9.382       8.721       7.569       5.756       3.203      3.2754E-02
   2    10.00       9.962       9.888       9.725       9.382       8.721       7.569       5.756       3.203      3.2754E-02
   3    10.00       9.962       9.888       9.725       9.382       8.721       7.569       5.756       3.203      3.2754E-02
   4    10.00       9.962       9.888       9.725       9.382       8.721       7.569       5.756       3.203      3.2754E-02
   5    10.00       9.962       9.888       9.725       9.382       8.721       7.569       5.756       3.203      3.2754E-02
   6    10.00       9.962       9.888       9.725       9.382       8.721       7.569       5.756       3.203      3.2754E-02
   7    10.00       9.962       9.888       9.725       9.382       8.721       7.569       5.756       3.203      3.2754E-02
   8    10.00       9.962       9.888       9.725       9.382       8.721       7.569       5.756       3.203      3.2754E-02
   9    10.00       9.962       9.888       9.725       9.382       8.721       7.569       5.756       3.203      3.2754E-02
  10    10.00       9.962       9.888       9.725       9.382       8.721       7.569       5.756       3.203      3.2754E-02

 HEAD WILL BE SAVED ON UNIT   51 AT END OF TIME STEP   62, STRESS PERIOD    2

 DRAWDOWN WILL BE SAVED ON UNIT   52 AT END OF TIME STEP   62, STRESS PERIOD    2
1
  VOLUMETRIC BUDGET FOR ENTIRE MODEL AT END OF TIME STEP   62, STRESS PERIOD   2
  ------------------------------------------------------------------------------

     CUMULATIVE VOLUMES      L**3       RATES FOR THIS TIME STEP      L**3/T
     ------------------                 ------------------------

           IN:                                      IN:
           ---                                      ---
             STORAGE =      257611.9375               STORAGE =        1615.2037
       CONSTANT HEAD =           0.0000         CONSTANT HEAD =           0.0000
               WELLS =           0.0000                 WELLS =           0.0000
     HEAD DEP BOUNDS =         295.6315       HEAD DEP BOUNDS =          22.4812

            TOTAL IN =      257907.5625              TOTAL IN =        1637.6849

          OUT:                                     OUT:
          ----                                     ----
             STORAGE =           0.0000               STORAGE =           0.0000
       CONSTANT HEAD =           0.0000         CONSTANT HEAD =           0.0000
               WELLS =           0.0000                 WELLS =           0.0000
     HEAD DEP BOUNDS =      257907.6719       HEAD DEP BOUNDS =        1637.7095

           TOTAL OUT =      257907.6719             TOTAL OUT =        1637.7095

            IN - OUT =          -0.1094              IN - OUT =      -2.4536E-02

 PERCENT DISCREPANCY =          -0.00     PERCENT DISCREPANCY =          -0.00






         TIME SUMMARY AT END OF TIME STEP   62 IN STRESS PERIOD    2
                    SECONDS     MINUTES      HOURS       DAYS        YEARS
                    -----------------------------------------------------------
   TIME STEP LENGTH  86400.      1440.0      24.000     1.00000     2.73785E-03
 STRESS PERIOD TIME 5.35680E+06  89280.      1488.0      62.000     0.16975    
         TOTAL TIME 5.44320E+06  90720.      1512.0      63.000     0.17248    
1
 
 SOLVING FOR HEAD 

 OUTPUT CONTROL FOR STRESS PERIOD    2   TIME STEP   63
    SAVE HEAD FOR ALL LAYERS
    SAVE DRAWDOWN FOR ALL LAYERS
    SAVE BUDGET
    PRINT HEAD FOR ALL LAYERS
    PRINT BUDGET
 UBDSV1 SAVING "         STORAGE" ON UNIT  53 AT TIME STEP 63, STRESS PERIOD   2
 UBDSV2 SAVING "   CONSTANT HEAD" ON UNIT  53 AT TIME STEP 63, STRESS PERIOD   2
 UBDSV1 SAVING "FLOW RIGHT FACE " ON UNIT  53 AT TIME STEP 63, STRESS PERIOD   2
 UBDSV1 SAVING "FLOW FRONT FACE " ON UNIT  53 AT TIME STEP 63, STRESS PERIOD   2
1
              HEAD IN LAYER   1 AT END OF TIME STEP  63 IN STRESS PERIOD    2
  ---------------------------------------------------------------------------

            1           2           3           4           5           6           7           8           9          10
 ........................................................................................................................
   1    10.00       9.960       9.883       9.714       9.363       8.694       7.533       5.720       3.179      3.2501E-02
   2    10.00       9.960       9.883       9.714       9.363       8.694       7.533       5.720       3.179      3.2501E-02
   3    10.00       9.960       9.883       9.714       9.363       8.694       7.533       5.720       3.179      3.2501E-02
   4    10.00       9.960       9.883       9.714       9.363       8.694       7.533       5.720       3.179      3.2501E-02
   5    10.00       9.960       9.883       9.714       9.363       8.694       7.533       5.720       3.179      3.2501E-02
   6    10.00       9.960       9.883       9.714       9.363       8.694       7.533       5.720       3.179      3.2501E-02
   7    10.00       9.960       9.883       9.714       9.363       8.694       7.533       5.720       3.179      3.2501E-02
   8    10.00       9.960       9.883       9.714       9.363       8.694       7.533       5.720       3.179      3.2501E-02
   9    10.00       9.960       9.883       9.714       9.363       8.694       7.533       5.720       3.179      3.2501E-02
  10    10.00       9.960       9.883       9.714       9.363       8.694       7.533       5.720       3.179      3.2501E-02

 HEAD WILL BE SAVED ON UNIT   51 AT END OF TIME STEP   63, STRESS PERIOD    2

 DRAWDOWN WILL BE SAVED ON UNIT   52 AT END OF TIME STEP   63, STRESS PERIOD    2
1
  VOLUMETRIC BUDGET FOR ENTIRE MODEL AT END OF TIME STEP   63, STRESS PERIOD   2
  ------------------------------------------------------------------------------

     CUMULATIVE VOLUMES      L**3       RATES FOR THIS TIME STEP      L**3/T
     ------------------                 ------------------------

           IN:                                      IN:
           ---                                      ---
             STORAGE =      259213.1719               STORAGE =        1601.2419
       CONSTANT HEAD =           0.0000         CONSTANT HEAD =           0.0000
               WELLS =           0.0000                 WELLS =           0.0000
     HEAD DEP BOUNDS =         319.4308       HEAD DEP BOUNDS =          23.7993

            TOTAL IN =      259532.6094              TOTAL IN =        1625.0413

          OUT:                                     OUT:
          ----                                     ----
             STORAGE =           0.0000               STORAGE =           0.0000
       CONSTANT HEAD =           0.0000         CONSTANT HEAD =           0.0000
               WELLS =           0.0000                 WELLS =           0.0000
     HEAD DEP BOUNDS =      259532.7188       HEAD DEP BOUNDS =        1625.0424

           TOTAL OUT =      259532.7188             TOTAL OUT =        1625.0424

            IN - OUT =          -0.1094              IN - OUT =      -1.0986E-03

 PERCENT DISCREPANCY =          -0.00     PERCENT DISCREPANCY =          -0.00






         TIME SUMMARY AT END OF TIME STEP   63 IN STRESS PERIOD    2
                    SECONDS     MINUTES      HOURS       DAYS        YEARS
                    -----------------------------------------------------------
   TIME STEP LENGTH  86400.      1440.0      24.000     1.00000     2.73785E-03
 STRESS PERIOD TIME 5.44320E+06  90720.      1512.0      63.000     0.17248    
         TOTAL TIME 5.52960E+06  92160.      1536.0      64.000     0.17522    
1
 
 SOLVING FOR HEAD 

 OUTPUT CONTROL FOR STRESS PERIOD    2   TIME STEP   64
    SAVE HEAD FOR ALL LAYERS
    SAVE DRAWDOWN FOR ALL LAYERS
    SAVE BUDGET
    PRINT HEAD FOR ALL LAYERS
    PRINT BUDGET
 UBDSV1 SAVING "         STORAGE" ON UNIT  53 AT TIME STEP 64, STRESS PERIOD   2
 UBDSV2 SAVING "   CONSTANT HEAD" ON UNIT  53 AT TIME STEP 64, STRESS PERIOD   2
 UBDSV1 SAVING "FLOW RIGHT FACE " ON UNIT  53 AT TIME STEP 64, STRESS PERIOD   2
 UBDSV1 SAVING "FLOW FRONT FACE " ON UNIT  53 AT TIME STEP 64, STRESS PERIOD   2
1
              HEAD IN LAYER   1 AT END OF TIME STEP  64 IN STRESS PERIOD    2
  ---------------------------------------------------------------------------

            1           2           3           4           5           6           7           8           9          10
 ........................................................................................................................
   1    10.00       9.957       9.877       9.703       9.345       8.666       7.499       5.685       3.156      3.2253E-02
   2    10.00       9.957       9.877       9.703       9.345       8.666       7.499       5.685       3.156      3.2253E-02
   3    10.00       9.957       9.877       9.703       9.345       8.666       7.499       5.685       3.156      3.2253E-02
   4    10.00       9.957       9.877       9.703       9.345       8.666       7.499       5.685       3.156      3.2253E-02
   5    10.00       9.957       9.877       9.703       9.345       8.666       7.499       5.685       3.156      3.2253E-02
   6    10.00       9.957       9.877       9.703       9.345       8.666       7.499       5.685       3.156      3.2253E-02
   7    10.00       9.957       9.877       9.703       9.345       8.666       7.499       5.685       3.156      3.2253E-02
   8    10.00       9.957       9.877       9.703       9.345       8.666       7.499       5.685       3.156      3.2253E-02
   9    10.00       9.957       9.877       9.703       9.345       8.666       7.499       5.685       3.156      3.2253E-02
  10    10.00       9.957       9.877       9.703       9.345       8.666       7.499       5.685       3.156      3.2253E-02

 HEAD WILL BE SAVED ON UNIT   51 AT END OF TIME STEP   64, STRESS PERIOD    2

 DRAWDOWN WILL BE SAVED ON UNIT   52 AT END OF TIME STEP   64, STRESS PERIOD    2
1
  VOLUMETRIC BUDGET FOR ENTIRE MODEL AT END OF TIME STEP   64, STRESS PERIOD   2
  ------------------------------------------------------------------------------

     CUMULATIVE VOLUMES      L**3       RATES FOR THIS TIME STEP      L**3/T
     ------------------                 ------------------------

           IN:                                      IN:
           ---                                      ---
             STORAGE =      260800.7188               STORAGE =        1587.5416
       CONSTANT HEAD =           0.0000         CONSTANT HEAD =           0.0000
               WELLS =           0.0000                 WELLS =           0.0000
     HEAD DEP BOUNDS =         344.5812       HEAD DEP BOUNDS =          25.1504

            TOTAL IN =      261145.2969              TOTAL IN =        1612.6920

          OUT:                                     OUT:
          ----                                     ----
             STORAGE =           0.0000               STORAGE =           0.0000
       CONSTANT HEAD =           0.0000         CONSTANT HEAD =           0.0000
               WELLS =           0.0000                 WELLS =           0.0000
     HEAD DEP BOUNDS =      261145.3906       HEAD DEP BOUNDS =        1612.6696

           TOTAL OUT =      261145.3906             TOTAL OUT =        1612.6696

            IN - OUT =      -9.3750E-02              IN - OUT =       2.2461E-02

 PERCENT DISCREPANCY =          -0.00     PERCENT DISCREPANCY =           0.00






         TIME SUMMARY AT END OF TIME STEP   64 IN STRESS PERIOD    2
                    SECONDS     MINUTES      HOURS       DAYS        YEARS
                    -----------------------------------------------------------
   TIME STEP LENGTH  86400.      1440.0      24.000     1.00000     2.73785E-03
 STRESS PERIOD TIME 5.52960E+06  92160.      1536.0      64.000     0.17522    
         TOTAL TIME 5.61600E+06  93600.      1560.0      65.000     0.17796    
1
 
 SOLVING FOR HEAD 

 OUTPUT CONTROL FOR STRESS PERIOD    2   TIME STEP   65
    SAVE HEAD FOR ALL LAYERS
    SAVE DRAWDOWN FOR ALL LAYERS
    SAVE BUDGET
    PRINT HEAD FOR ALL LAYERS
    PRINT BUDGET
 UBDSV1 SAVING "         STORAGE" ON UNIT  53 AT TIME STEP 65, STRESS PERIOD   2
 UBDSV2 SAVING "   CONSTANT HEAD" ON UNIT  53 AT TIME STEP 65, STRESS PERIOD   2
 UBDSV1 SAVING "FLOW RIGHT FACE " ON UNIT  53 AT TIME STEP 65, STRESS PERIOD   2
 UBDSV1 SAVING "FLOW FRONT FACE " ON UNIT  53 AT TIME STEP 65, STRESS PERIOD   2
1
              HEAD IN LAYER   1 AT END OF TIME STEP  65 IN STRESS PERIOD    2
  ---------------------------------------------------------------------------

            1           2           3           4           5           6           7           8           9          10
 ........................................................................................................................
   1    10.00       9.955       9.872       9.692       9.326       8.638       7.464       5.651       3.133      3.2011E-02
   2    10.00       9.955       9.872       9.692       9.326       8.638       7.464       5.651       3.133      3.2011E-02
   3    10.00       9.955       9.872       9.692       9.326       8.638       7.464       5.651       3.133      3.2011E-02
   4    10.00       9.955       9.872       9.692       9.326       8.638       7.464       5.651       3.133      3.2011E-02
   5    10.00       9.955       9.872       9.692       9.326       8.638       7.464       5.651       3.133      3.2011E-02
   6    10.00       9.955       9.872       9.692       9.326       8.638       7.464       5.651       3.133      3.2011E-02
   7    10.00       9.955       9.872       9.692       9.326       8.638       7.464       5.651       3.133      3.2011E-02
   8    10.00       9.955       9.872       9.692       9.326       8.638       7.464       5.651       3.133      3.2011E-02
   9    10.00       9.955       9.872       9.692       9.326       8.638       7.464       5.651       3.133      3.2011E-02
  10    10.00       9.955       9.872       9.692       9.326       8.638       7.464       5.651       3.133      3.2011E-02

 HEAD WILL BE SAVED ON UNIT   51 AT END OF TIME STEP   65, STRESS PERIOD    2

 DRAWDOWN WILL BE SAVED ON UNIT   52 AT END OF TIME STEP   65, STRESS PERIOD    2
1
  VOLUMETRIC BUDGET FOR ENTIRE MODEL AT END OF TIME STEP   65, STRESS PERIOD   2
  ------------------------------------------------------------------------------

     CUMULATIVE VOLUMES      L**3       RATES FOR THIS TIME STEP      L**3/T
     ------------------                 ------------------------

           IN:                                      IN:
           ---                                      ---
             STORAGE =      262374.7812               STORAGE =        1574.0732
       CONSTANT HEAD =           0.0000         CONSTANT HEAD =           0.0000
               WELLS =           0.0000                 WELLS =           0.0000
     HEAD DEP BOUNDS =         371.1157       HEAD DEP BOUNDS =          26.5345

            TOTAL IN =      262745.9062              TOTAL IN =        1600.6077

          OUT:                                     OUT:
          ----                                     ----
             STORAGE =           0.0000               STORAGE =           0.0000
       CONSTANT HEAD =           0.0000         CONSTANT HEAD =           0.0000
               WELLS =           0.0000                 WELLS =           0.0000
     HEAD DEP BOUNDS =      262745.9688       HEAD DEP BOUNDS =        1600.5665

           TOTAL OUT =      262745.9688             TOTAL OUT =        1600.5665

            IN - OUT =      -6.2500E-02              IN - OUT =       4.1138E-02

 PERCENT DISCREPANCY =          -0.00     PERCENT DISCREPANCY =           0.00






         TIME SUMMARY AT END OF TIME STEP   65 IN STRESS PERIOD    2
                    SECONDS     MINUTES      HOURS       DAYS        YEARS
                    -----------------------------------------------------------
   TIME STEP LENGTH  86400.      1440.0      24.000     1.00000     2.73785E-03
 STRESS PERIOD TIME 5.61600E+06  93600.      1560.0      65.000     0.17796    
         TOTAL TIME 5.70240E+06  95040.      1584.0      66.000     0.18070    
1
 
 SOLVING FOR HEAD 

 OUTPUT CONTROL FOR STRESS PERIOD    2   TIME STEP   66
    SAVE HEAD FOR ALL LAYERS
    SAVE DRAWDOWN FOR ALL LAYERS
    SAVE BUDGET
    PRINT HEAD FOR ALL LAYERS
    PRINT BUDGET
 UBDSV1 SAVING "         STORAGE" ON UNIT  53 AT TIME STEP 66, STRESS PERIOD   2
 UBDSV2 SAVING "   CONSTANT HEAD" ON UNIT  53 AT TIME STEP 66, STRESS PERIOD   2
 UBDSV1 SAVING "FLOW RIGHT FACE " ON UNIT  53 AT TIME STEP 66, STRESS PERIOD   2
 UBDSV1 SAVING "FLOW FRONT FACE " ON UNIT  53 AT TIME STEP 66, STRESS PERIOD   2
1
              HEAD IN LAYER   1 AT END OF TIME STEP  66 IN STRESS PERIOD    2
  ---------------------------------------------------------------------------

            1           2           3           4           5           6           7           8           9          10
 ........................................................................................................................
   1    10.00       9.953       9.866       9.681       9.307       8.611       7.430       5.617       3.111      3.1775E-02
   2    10.00       9.953       9.866       9.681       9.307       8.611       7.430       5.617       3.111      3.1775E-02
   3    10.00       9.953       9.866       9.681       9.307       8.611       7.430       5.617       3.111      3.1775E-02
   4    10.00       9.953       9.866       9.681       9.307       8.611       7.430       5.617       3.111      3.1775E-02
   5    10.00       9.953       9.866       9.681       9.307       8.611       7.430       5.617       3.111      3.1775E-02
   6    10.00       9.953       9.866       9.681       9.307       8.611       7.430       5.617       3.111      3.1775E-02
   7    10.00       9.953       9.866       9.681       9.307       8.611       7.430       5.617       3.111      3.1775E-02
   8    10.00       9.953       9.866       9.681       9.307       8.611       7.430       5.617       3.111      3.1775E-02
   9    10.00       9.953       9.866       9.681       9.307       8.611       7.430       5.617       3.111      3.1775E-02
  10    10.00       9.953       9.866       9.681       9.307       8.611       7.430       5.617       3.111      3.1775E-02

 HEAD WILL BE SAVED ON UNIT   51 AT END OF TIME STEP   66, STRESS PERIOD    2

 DRAWDOWN WILL BE SAVED ON UNIT   52 AT END OF TIME STEP   66, STRESS PERIOD    2
1
  VOLUMETRIC BUDGET FOR ENTIRE MODEL AT END OF TIME STEP   66, STRESS PERIOD   2
  ------------------------------------------------------------------------------

     CUMULATIVE VOLUMES      L**3       RATES FOR THIS TIME STEP      L**3/T
     ------------------                 ------------------------

           IN:                                      IN:
           ---                                      ---
             STORAGE =      263935.5938               STORAGE =        1560.8156
       CONSTANT HEAD =           0.0000         CONSTANT HEAD =           0.0000
               WELLS =           0.0000                 WELLS =           0.0000
     HEAD DEP BOUNDS =         399.0670       HEAD DEP BOUNDS =          27.9514

            TOTAL IN =      264334.6562              TOTAL IN =        1588.7670

          OUT:                                     OUT:
          ----                                     ----
             STORAGE =           0.0000               STORAGE =           0.0000
       CONSTANT HEAD =           0.0000         CONSTANT HEAD =           0.0000
               WELLS =           0.0000                 WELLS =           0.0000
     HEAD DEP BOUNDS =      264334.6875       HEAD DEP BOUNDS =        1588.7327

           TOTAL OUT =      264334.6875             TOTAL OUT =        1588.7327

            IN - OUT =      -3.1250E-02              IN - OUT =       3.4302E-02

 PERCENT DISCREPANCY =          -0.00     PERCENT DISCREPANCY =           0.00






         TIME SUMMARY AT END OF TIME STEP   66 IN STRESS PERIOD    2
                    SECONDS     MINUTES      HOURS       DAYS        YEARS
                    -----------------------------------------------------------
   TIME STEP LENGTH  86400.      1440.0      24.000     1.00000     2.73785E-03
 STRESS PERIOD TIME 5.70240E+06  95040.      1584.0      66.000     0.18070    
         TOTAL TIME 5.78880E+06  96480.      1608.0      67.000     0.18344    
1
 
 SOLVING FOR HEAD 

 OUTPUT CONTROL FOR STRESS PERIOD    2   TIME STEP   67
    SAVE HEAD FOR ALL LAYERS
    SAVE DRAWDOWN FOR ALL LAYERS
    SAVE BUDGET
    PRINT HEAD FOR ALL LAYERS
    PRINT BUDGET
 UBDSV1 SAVING "         STORAGE" ON UNIT  53 AT TIME STEP 67, STRESS PERIOD   2
 UBDSV2 SAVING "   CONSTANT HEAD" ON UNIT  53 AT TIME STEP 67, STRESS PERIOD   2
 UBDSV1 SAVING "FLOW RIGHT FACE " ON UNIT  53 AT TIME STEP 67, STRESS PERIOD   2
 UBDSV1 SAVING "FLOW FRONT FACE " ON UNIT  53 AT TIME STEP 67, STRESS PERIOD   2
1
              HEAD IN LAYER   1 AT END OF TIME STEP  67 IN STRESS PERIOD    2
  ---------------------------------------------------------------------------

            1           2           3           4           5           6           7           8           9          10
 ........................................................................................................................
   1    10.00       9.950       9.860       9.670       9.288       8.583       7.397       5.584       3.089      3.1543E-02
   2    10.00       9.950       9.860       9.670       9.288       8.583       7.397       5.584       3.089      3.1543E-02
   3    10.00       9.950       9.860       9.670       9.288       8.583       7.397       5.584       3.089      3.1543E-02
   4    10.00       9.950       9.860       9.670       9.288       8.583       7.397       5.584       3.089      3.1543E-02
   5    10.00       9.950       9.860       9.670       9.288       8.583       7.397       5.584       3.089      3.1543E-02
   6    10.00       9.950       9.860       9.670       9.288       8.583       7.397       5.584       3.089      3.1543E-02
   7    10.00       9.950       9.860       9.670       9.288       8.583       7.397       5.584       3.089      3.1543E-02
   8    10.00       9.950       9.860       9.670       9.288       8.583       7.397       5.584       3.089      3.1543E-02
   9    10.00       9.950       9.860       9.670       9.288       8.583       7.397       5.584       3.089      3.1543E-02
  10    10.00       9.950       9.860       9.670       9.288       8.583       7.397       5.584       3.089      3.1543E-02

 HEAD WILL BE SAVED ON UNIT   51 AT END OF TIME STEP   67, STRESS PERIOD    2

 DRAWDOWN WILL BE SAVED ON UNIT   52 AT END OF TIME STEP   67, STRESS PERIOD    2
1
  VOLUMETRIC BUDGET FOR ENTIRE MODEL AT END OF TIME STEP   67, STRESS PERIOD   2
  ------------------------------------------------------------------------------

     CUMULATIVE VOLUMES      L**3       RATES FOR THIS TIME STEP      L**3/T
     ------------------                 ------------------------

           IN:                                      IN:
           ---                                      ---
             STORAGE =      265483.4062               STORAGE =        1547.8019
       CONSTANT HEAD =           0.0000         CONSTANT HEAD =           0.0000
               WELLS =           0.0000                 WELLS =           0.0000
     HEAD DEP BOUNDS =         428.4672       HEAD DEP BOUNDS =          29.4002

            TOTAL IN =      265911.8750              TOTAL IN =        1577.2020

          OUT:                                     OUT:
          ----                                     ----
             STORAGE =           0.0000               STORAGE =           0.0000
       CONSTANT HEAD =           0.0000         CONSTANT HEAD =           0.0000
               WELLS =           0.0000                 WELLS =           0.0000
     HEAD DEP BOUNDS =      265911.8438       HEAD DEP BOUNDS =        1577.1604

           TOTAL OUT =      265911.8438             TOTAL OUT =        1577.1604

            IN - OUT =       3.1250E-02              IN - OUT =       4.1626E-02

 PERCENT DISCREPANCY =           0.00     PERCENT DISCREPANCY =           0.00






         TIME SUMMARY AT END OF TIME STEP   67 IN STRESS PERIOD    2
                    SECONDS     MINUTES      HOURS       DAYS        YEARS
                    -----------------------------------------------------------
   TIME STEP LENGTH  86400.      1440.0      24.000     1.00000     2.73785E-03
 STRESS PERIOD TIME 5.78880E+06  96480.      1608.0      67.000     0.18344    
         TOTAL TIME 5.87520E+06  97920.      1632.0      68.000     0.18617    
1
 
 SOLVING FOR HEAD 

 OUTPUT CONTROL FOR STRESS PERIOD    2   TIME STEP   68
    SAVE HEAD FOR ALL LAYERS
    SAVE DRAWDOWN FOR ALL LAYERS
    SAVE BUDGET
    PRINT HEAD FOR ALL LAYERS
    PRINT BUDGET
 UBDSV1 SAVING "         STORAGE" ON UNIT  53 AT TIME STEP 68, STRESS PERIOD   2
 UBDSV2 SAVING "   CONSTANT HEAD" ON UNIT  53 AT TIME STEP 68, STRESS PERIOD   2
 UBDSV1 SAVING "FLOW RIGHT FACE " ON UNIT  53 AT TIME STEP 68, STRESS PERIOD   2
 UBDSV1 SAVING "FLOW FRONT FACE " ON UNIT  53 AT TIME STEP 68, STRESS PERIOD   2
1
              HEAD IN LAYER   1 AT END OF TIME STEP  68 IN STRESS PERIOD    2
  ---------------------------------------------------------------------------

            1           2           3           4           5           6           7           8           9          10
 ........................................................................................................................
   1    9.999       9.948       9.854       9.658       9.269       8.556       7.364       5.551       3.067      3.1317E-02
   2    9.999       9.948       9.854       9.658       9.269       8.556       7.364       5.551       3.067      3.1317E-02
   3    9.999       9.948       9.854       9.658       9.269       8.556       7.364       5.551       3.067      3.1317E-02
   4    9.999       9.948       9.854       9.658       9.269       8.556       7.364       5.551       3.067      3.1317E-02
   5    9.999       9.948       9.854       9.658       9.269       8.556       7.364       5.551       3.067      3.1317E-02
   6    9.999       9.948       9.854       9.658       9.269       8.556       7.364       5.551       3.067      3.1317E-02
   7    9.999       9.948       9.854       9.658       9.269       8.556       7.364       5.551       3.067      3.1317E-02
   8    9.999       9.948       9.854       9.658       9.269       8.556       7.364       5.551       3.067      3.1317E-02
   9    9.999       9.948       9.854       9.658       9.269       8.556       7.364       5.551       3.067      3.1317E-02
  10    9.999       9.948       9.854       9.658       9.269       8.556       7.364       5.551       3.067      3.1317E-02

 HEAD WILL BE SAVED ON UNIT   51 AT END OF TIME STEP   68, STRESS PERIOD    2

 DRAWDOWN WILL BE SAVED ON UNIT   52 AT END OF TIME STEP   68, STRESS PERIOD    2
1
  VOLUMETRIC BUDGET FOR ENTIRE MODEL AT END OF TIME STEP   68, STRESS PERIOD   2
  ------------------------------------------------------------------------------

     CUMULATIVE VOLUMES      L**3       RATES FOR THIS TIME STEP      L**3/T
     ------------------                 ------------------------

           IN:                                      IN:
           ---                                      ---
             STORAGE =      267018.4062               STORAGE =        1534.9911
       CONSTANT HEAD =           0.0000         CONSTANT HEAD =           0.0000
               WELLS =           0.0000                 WELLS =           0.0000
     HEAD DEP BOUNDS =         459.3476       HEAD DEP BOUNDS =          30.8804

            TOTAL IN =      267477.7500              TOTAL IN =        1565.8715

          OUT:                                     OUT:
          ----                                     ----
             STORAGE =           0.0000               STORAGE =           0.0000
       CONSTANT HEAD =           0.0000         CONSTANT HEAD =           0.0000
               WELLS =           0.0000                 WELLS =           0.0000
     HEAD DEP BOUNDS =      267477.6875       HEAD DEP BOUNDS =        1565.8344

           TOTAL OUT =      267477.6875             TOTAL OUT =        1565.8344

            IN - OUT =       6.2500E-02              IN - OUT =       3.7109E-02

 PERCENT DISCREPANCY =           0.00     PERCENT DISCREPANCY =           0.00






         TIME SUMMARY AT END OF TIME STEP   68 IN STRESS PERIOD    2
                    SECONDS     MINUTES      HOURS       DAYS        YEARS
                    -----------------------------------------------------------
   TIME STEP LENGTH  86400.      1440.0      24.000     1.00000     2.73785E-03
 STRESS PERIOD TIME 5.87520E+06  97920.      1632.0      68.000     0.18617    
         TOTAL TIME 5.96160E+06  99360.      1656.0      69.000     0.18891    
1
 
 SOLVING FOR HEAD 

 OUTPUT CONTROL FOR STRESS PERIOD    2   TIME STEP   69
    SAVE HEAD FOR ALL LAYERS
    SAVE DRAWDOWN FOR ALL LAYERS
    SAVE BUDGET
    PRINT HEAD FOR ALL LAYERS
    PRINT BUDGET
 UBDSV1 SAVING "         STORAGE" ON UNIT  53 AT TIME STEP 69, STRESS PERIOD   2
 UBDSV2 SAVING "   CONSTANT HEAD" ON UNIT  53 AT TIME STEP 69, STRESS PERIOD   2
 UBDSV1 SAVING "FLOW RIGHT FACE " ON UNIT  53 AT TIME STEP 69, STRESS PERIOD   2
 UBDSV1 SAVING "FLOW FRONT FACE " ON UNIT  53 AT TIME STEP 69, STRESS PERIOD   2
1
              HEAD IN LAYER   1 AT END OF TIME STEP  69 IN STRESS PERIOD    2
  ---------------------------------------------------------------------------

            1           2           3           4           5           6           7           8           9          10
 ........................................................................................................................
   1    9.999       9.945       9.848       9.647       9.250       8.529       7.331       5.519       3.046      3.1095E-02
   2    9.999       9.945       9.848       9.647       9.250       8.529       7.331       5.519       3.046      3.1095E-02
   3    9.999       9.945       9.848       9.647       9.250       8.529       7.331       5.519       3.046      3.1095E-02
   4    9.999       9.945       9.848       9.647       9.250       8.529       7.331       5.519       3.046      3.1095E-02
   5    9.999       9.945       9.848       9.647       9.250       8.529       7.331       5.519       3.046      3.1095E-02
   6    9.999       9.945       9.848       9.647       9.250       8.529       7.331       5.519       3.046      3.1095E-02
   7    9.999       9.945       9.848       9.647       9.250       8.529       7.331       5.519       3.046      3.1095E-02
   8    9.999       9.945       9.848       9.647       9.250       8.529       7.331       5.519       3.046      3.1095E-02
   9    9.999       9.945       9.848       9.647       9.250       8.529       7.331       5.519       3.046      3.1095E-02
  10    9.999       9.945       9.848       9.647       9.250       8.529       7.331       5.519       3.046      3.1095E-02

 HEAD WILL BE SAVED ON UNIT   51 AT END OF TIME STEP   69, STRESS PERIOD    2

 DRAWDOWN WILL BE SAVED ON UNIT   52 AT END OF TIME STEP   69, STRESS PERIOD    2
1
  VOLUMETRIC BUDGET FOR ENTIRE MODEL AT END OF TIME STEP   69, STRESS PERIOD   2
  ------------------------------------------------------------------------------

     CUMULATIVE VOLUMES      L**3       RATES FOR THIS TIME STEP      L**3/T
     ------------------                 ------------------------

           IN:                                      IN:
           ---                                      ---
             STORAGE =      268540.7500               STORAGE =        1522.3571
       CONSTANT HEAD =           0.0000         CONSTANT HEAD =           0.0000
               WELLS =           0.0000                 WELLS =           0.0000
     HEAD DEP BOUNDS =         491.7394       HEAD DEP BOUNDS =          32.3918

            TOTAL IN =      269032.5000              TOTAL IN =        1554.7489

          OUT:                                     OUT:
          ----                                     ----
             STORAGE =           0.0000               STORAGE =           0.0000
       CONSTANT HEAD =           0.0000         CONSTANT HEAD =           0.0000
               WELLS =           0.0000                 WELLS =           0.0000
     HEAD DEP BOUNDS =      269032.4375       HEAD DEP BOUNDS =        1554.7466

           TOTAL OUT =      269032.4375             TOTAL OUT =        1554.7466

            IN - OUT =       6.2500E-02              IN - OUT =       2.3193E-03

 PERCENT DISCREPANCY =           0.00     PERCENT DISCREPANCY =           0.00






         TIME SUMMARY AT END OF TIME STEP   69 IN STRESS PERIOD    2
                    SECONDS     MINUTES      HOURS       DAYS        YEARS
                    -----------------------------------------------------------
   TIME STEP LENGTH  86400.      1440.0      24.000     1.00000     2.73785E-03
 STRESS PERIOD TIME 5.96160E+06  99360.      1656.0      69.000     0.18891    
         TOTAL TIME 6.04800E+06 1.00800E+05  1680.0      70.000     0.19165    
1
 
 SOLVING FOR HEAD 

 OUTPUT CONTROL FOR STRESS PERIOD    2   TIME STEP   70
    SAVE HEAD FOR ALL LAYERS
    SAVE DRAWDOWN FOR ALL LAYERS
    SAVE BUDGET
    PRINT HEAD FOR ALL LAYERS
    PRINT BUDGET
 UBDSV1 SAVING "         STORAGE" ON UNIT  53 AT TIME STEP 70, STRESS PERIOD   2
 UBDSV2 SAVING "   CONSTANT HEAD" ON UNIT  53 AT TIME STEP 70, STRESS PERIOD   2
 UBDSV1 SAVING "FLOW RIGHT FACE " ON UNIT  53 AT TIME STEP 70, STRESS PERIOD   2
 UBDSV1 SAVING "FLOW FRONT FACE " ON UNIT  53 AT TIME STEP 70, STRESS PERIOD   2
1
              HEAD IN LAYER   1 AT END OF TIME STEP  70 IN STRESS PERIOD    2
  ---------------------------------------------------------------------------

            1           2           3           4           5           6           7           8           9          10
 ........................................................................................................................
   1    9.999       9.942       9.841       9.635       9.232       8.503       7.298       5.488       3.025      3.0878E-02
   2    9.999       9.942       9.841       9.635       9.232       8.503       7.298       5.488       3.025      3.0878E-02
   3    9.999       9.942       9.841       9.635       9.232       8.503       7.298       5.488       3.025      3.0878E-02
   4    9.999       9.942       9.841       9.635       9.232       8.503       7.298       5.488       3.025      3.0878E-02
   5    9.999       9.942       9.841       9.635       9.232       8.503       7.298       5.488       3.025      3.0878E-02
   6    9.999       9.942       9.841       9.635       9.232       8.503       7.298       5.488       3.025      3.0878E-02
   7    9.999       9.942       9.841       9.635       9.232       8.503       7.298       5.488       3.025      3.0878E-02
   8    9.999       9.942       9.841       9.635       9.232       8.503       7.298       5.488       3.025      3.0878E-02
   9    9.999       9.942       9.841       9.635       9.232       8.503       7.298       5.488       3.025      3.0878E-02
  10    9.999       9.942       9.841       9.635       9.232       8.503       7.298       5.488       3.025      3.0878E-02

 HEAD WILL BE SAVED ON UNIT   51 AT END OF TIME STEP   70, STRESS PERIOD    2

 DRAWDOWN WILL BE SAVED ON UNIT   52 AT END OF TIME STEP   70, STRESS PERIOD    2
1
  VOLUMETRIC BUDGET FOR ENTIRE MODEL AT END OF TIME STEP   70, STRESS PERIOD   2
  ------------------------------------------------------------------------------

     CUMULATIVE VOLUMES      L**3       RATES FOR THIS TIME STEP      L**3/T
     ------------------                 ------------------------

           IN:                                      IN:
           ---                                      ---
             STORAGE =      270050.6875               STORAGE =        1509.9274
       CONSTANT HEAD =           0.0000         CONSTANT HEAD =           0.0000
               WELLS =           0.0000                 WELLS =           0.0000
     HEAD DEP BOUNDS =         525.6730       HEAD DEP BOUNDS =          33.9336

            TOTAL IN =      270576.3750              TOTAL IN =        1543.8610

          OUT:                                     OUT:
          ----                                     ----
             STORAGE =           0.0000               STORAGE =           0.0000
       CONSTANT HEAD =           0.0000         CONSTANT HEAD =           0.0000
               WELLS =           0.0000                 WELLS =           0.0000
     HEAD DEP BOUNDS =      270576.3438       HEAD DEP BOUNDS =        1543.8909

           TOTAL OUT =      270576.3438             TOTAL OUT =        1543.8909

            IN - OUT =       3.1250E-02              IN - OUT =      -2.9907E-02

 PERCENT DISCREPANCY =           0.00     PERCENT DISCREPANCY =          -0.00






         TIME SUMMARY AT END OF TIME STEP   70 IN STRESS PERIOD    2
                    SECONDS     MINUTES      HOURS       DAYS        YEARS
                    -----------------------------------------------------------
   TIME STEP LENGTH  86400.      1440.0      24.000     1.00000     2.73785E-03
 STRESS PERIOD TIME 6.04800E+06 1.00800E+05  1680.0      70.000     0.19165    
         TOTAL TIME 6.13440E+06 1.02240E+05  1704.0      71.000     0.19439    
1
 
 SOLVING FOR HEAD 

 OUTPUT CONTROL FOR STRESS PERIOD    2   TIME STEP   71
    SAVE HEAD FOR ALL LAYERS
    SAVE DRAWDOWN FOR ALL LAYERS
    SAVE BUDGET
    PRINT HEAD FOR ALL LAYERS
    PRINT BUDGET
 UBDSV1 SAVING "         STORAGE" ON UNIT  53 AT TIME STEP 71, STRESS PERIOD   2
 UBDSV2 SAVING "   CONSTANT HEAD" ON UNIT  53 AT TIME STEP 71, STRESS PERIOD   2
 UBDSV1 SAVING "FLOW RIGHT FACE " ON UNIT  53 AT TIME STEP 71, STRESS PERIOD   2
 UBDSV1 SAVING "FLOW FRONT FACE " ON UNIT  53 AT TIME STEP 71, STRESS PERIOD   2
1
              HEAD IN LAYER   1 AT END OF TIME STEP  71 IN STRESS PERIOD    2
  ---------------------------------------------------------------------------

            1           2           3           4           5           6           7           8           9          10
 ........................................................................................................................
   1    9.999       9.940       9.835       9.623       9.213       8.476       7.266       5.457       3.005      3.0665E-02
   2    9.999       9.940       9.835       9.623       9.213       8.476       7.266       5.457       3.005      3.0665E-02
   3    9.999       9.940       9.835       9.623       9.213       8.476       7.266       5.457       3.005      3.0665E-02
   4    9.999       9.940       9.835       9.623       9.213       8.476       7.266       5.457       3.005      3.0665E-02
   5    9.999       9.940       9.835       9.623       9.213       8.476       7.266       5.457       3.005      3.0665E-02
   6    9.999       9.940       9.835       9.623       9.213       8.476       7.266       5.457       3.005      3.0665E-02
   7    9.999       9.940       9.835       9.623       9.213       8.476       7.266       5.457       3.005      3.0665E-02
   8    9.999       9.940       9.835       9.623       9.213       8.476       7.266       5.457       3.005      3.0665E-02
   9    9.999       9.940       9.835       9.623       9.213       8.476       7.266       5.457       3.005      3.0665E-02
  10    9.999       9.940       9.835       9.623       9.213       8.476       7.266       5.457       3.005      3.0665E-02

 HEAD WILL BE SAVED ON UNIT   51 AT END OF TIME STEP   71, STRESS PERIOD    2

 DRAWDOWN WILL BE SAVED ON UNIT   52 AT END OF TIME STEP   71, STRESS PERIOD    2
1
  VOLUMETRIC BUDGET FOR ENTIRE MODEL AT END OF TIME STEP   71, STRESS PERIOD   2
  ------------------------------------------------------------------------------

     CUMULATIVE VOLUMES      L**3       RATES FOR THIS TIME STEP      L**3/T
     ------------------                 ------------------------

           IN:                                      IN:
           ---                                      ---
             STORAGE =      271548.4062               STORAGE =        1497.7302
       CONSTANT HEAD =           0.0000         CONSTANT HEAD =           0.0000
               WELLS =           0.0000                 WELLS =           0.0000
     HEAD DEP BOUNDS =         561.1786       HEAD DEP BOUNDS =          35.5057

            TOTAL IN =      272109.5938              TOTAL IN =        1533.2358

          OUT:                                     OUT:
          ----                                     ----
             STORAGE =           0.0000               STORAGE =           0.0000
       CONSTANT HEAD =           0.0000         CONSTANT HEAD =           0.0000
               WELLS =           0.0000                 WELLS =           0.0000
     HEAD DEP BOUNDS =      272109.5938       HEAD DEP BOUNDS =        1533.2605

           TOTAL OUT =      272109.5938             TOTAL OUT =        1533.2605

            IN - OUT =           0.0000              IN - OUT =      -2.4658E-02

 PERCENT DISCREPANCY =           0.00     PERCENT DISCREPANCY =          -0.00






         TIME SUMMARY AT END OF TIME STEP   71 IN STRESS PERIOD    2
                    SECONDS     MINUTES      HOURS       DAYS        YEARS
                    -----------------------------------------------------------
   TIME STEP LENGTH  86400.      1440.0      24.000     1.00000     2.73785E-03
 STRESS PERIOD TIME 6.13440E+06 1.02240E+05  1704.0      71.000     0.19439    
         TOTAL TIME 6.22080E+06 1.03680E+05  1728.0      72.000     0.19713    
1
 
 SOLVING FOR HEAD 

 OUTPUT CONTROL FOR STRESS PERIOD    2   TIME STEP   72
    SAVE HEAD FOR ALL LAYERS
    SAVE DRAWDOWN FOR ALL LAYERS
    SAVE BUDGET
    PRINT HEAD FOR ALL LAYERS
    PRINT BUDGET
 UBDSV1 SAVING "         STORAGE" ON UNIT  53 AT TIME STEP 72, STRESS PERIOD   2
 UBDSV2 SAVING "   CONSTANT HEAD" ON UNIT  53 AT TIME STEP 72, STRESS PERIOD   2
 UBDSV1 SAVING "FLOW RIGHT FACE " ON UNIT  53 AT TIME STEP 72, STRESS PERIOD   2
 UBDSV1 SAVING "FLOW FRONT FACE " ON UNIT  53 AT TIME STEP 72, STRESS PERIOD   2
1
              HEAD IN LAYER   1 AT END OF TIME STEP  72 IN STRESS PERIOD    2
  ---------------------------------------------------------------------------

            1           2           3           4           5           6           7           8           9          10
 ........................................................................................................................
   1    9.999       9.937       9.828       9.611       9.194       8.449       7.235       5.426       2.985      3.0457E-02
   2    9.999       9.937       9.828       9.611       9.194       8.449       7.235       5.426       2.985      3.0457E-02
   3    9.999       9.937       9.828       9.611       9.194       8.449       7.235       5.426       2.985      3.0457E-02
   4    9.999       9.937       9.828       9.611       9.194       8.449       7.235       5.426       2.985      3.0457E-02
   5    9.999       9.937       9.828       9.611       9.194       8.449       7.235       5.426       2.985      3.0457E-02
   6    9.999       9.937       9.828       9.611       9.194       8.449       7.235       5.426       2.985      3.0457E-02
   7    9.999       9.937       9.828       9.611       9.194       8.449       7.235       5.426       2.985      3.0457E-02
   8    9.999       9.937       9.828       9.611       9.194       8.449       7.235       5.426       2.985      3.0457E-02
   9    9.999       9.937       9.828       9.611       9.194       8.449       7.235       5.426       2.985      3.0457E-02
  10    9.999       9.937       9.828       9.611       9.194       8.449       7.235       5.426       2.985      3.0457E-02

 HEAD WILL BE SAVED ON UNIT   51 AT END OF TIME STEP   72, STRESS PERIOD    2

 DRAWDOWN WILL BE SAVED ON UNIT   52 AT END OF TIME STEP   72, STRESS PERIOD    2
1
  VOLUMETRIC BUDGET FOR ENTIRE MODEL AT END OF TIME STEP   72, STRESS PERIOD   2
  ------------------------------------------------------------------------------

     CUMULATIVE VOLUMES      L**3       RATES FOR THIS TIME STEP      L**3/T
     ------------------                 ------------------------

           IN:                                      IN:
           ---                                      ---
             STORAGE =      273034.0625               STORAGE =        1485.6658
       CONSTANT HEAD =           0.0000         CONSTANT HEAD =           0.0000
               WELLS =           0.0000                 WELLS =           0.0000
     HEAD DEP BOUNDS =         598.3521       HEAD DEP BOUNDS =          37.1734

            TOTAL IN =      273632.4062              TOTAL IN =        1522.8392

          OUT:                                     OUT:
          ----                                     ----
             STORAGE =           0.0000               STORAGE =           0.0000
       CONSTANT HEAD =           0.0000         CONSTANT HEAD =           0.0000
               WELLS =           0.0000                 WELLS =           0.0000
     HEAD DEP BOUNDS =      273632.4375       HEAD DEP BOUNDS =        1522.8412

           TOTAL OUT =      273632.4375             TOTAL OUT =        1522.8412

            IN - OUT =      -3.1250E-02              IN - OUT =      -1.9531E-03

 PERCENT DISCREPANCY =          -0.00     PERCENT DISCREPANCY =          -0.00






         TIME SUMMARY AT END OF TIME STEP   72 IN STRESS PERIOD    2
                    SECONDS     MINUTES      HOURS       DAYS        YEARS
                    -----------------------------------------------------------
   TIME STEP LENGTH  86400.      1440.0      24.000     1.00000     2.73785E-03
 STRESS PERIOD TIME 6.22080E+06 1.03680E+05  1728.0      72.000     0.19713    
         TOTAL TIME 6.30720E+06 1.05120E+05  1752.0      73.000     0.19986    
1
 
 SOLVING FOR HEAD 

 OUTPUT CONTROL FOR STRESS PERIOD    2   TIME STEP   73
    SAVE HEAD FOR ALL LAYERS
    SAVE DRAWDOWN FOR ALL LAYERS
    SAVE BUDGET
    PRINT HEAD FOR ALL LAYERS
    PRINT BUDGET
 UBDSV1 SAVING "         STORAGE" ON UNIT  53 AT TIME STEP 73, STRESS PERIOD   2
 UBDSV2 SAVING "   CONSTANT HEAD" ON UNIT  53 AT TIME STEP 73, STRESS PERIOD   2
 UBDSV1 SAVING "FLOW RIGHT FACE " ON UNIT  53 AT TIME STEP 73, STRESS PERIOD   2
 UBDSV1 SAVING "FLOW FRONT FACE " ON UNIT  53 AT TIME STEP 73, STRESS PERIOD   2
1
              HEAD IN LAYER   1 AT END OF TIME STEP  73 IN STRESS PERIOD    2
  ---------------------------------------------------------------------------

            1           2           3           4           5           6           7           8           9          10
 ........................................................................................................................
   1    9.999       9.934       9.822       9.600       9.175       8.423       7.204       5.397       2.966      3.0253E-02
   2    9.999       9.934       9.822       9.600       9.175       8.423       7.204       5.397       2.966      3.0253E-02
   3    9.999       9.934       9.822       9.600       9.175       8.423       7.204       5.397       2.966      3.0253E-02
   4    9.999       9.934       9.822       9.600       9.175       8.423       7.204       5.397       2.966      3.0253E-02
   5    9.999       9.934       9.822       9.600       9.175       8.423       7.204       5.397       2.966      3.0253E-02
   6    9.999       9.934       9.822       9.600       9.175       8.423       7.204       5.397       2.966      3.0253E-02
   7    9.999       9.934       9.822       9.600       9.175       8.423       7.204       5.397       2.966      3.0253E-02
   8    9.999       9.934       9.822       9.600       9.175       8.423       7.204       5.397       2.966      3.0253E-02
   9    9.999       9.934       9.822       9.600       9.175       8.423       7.204       5.397       2.966      3.0253E-02
  10    9.999       9.934       9.822       9.600       9.175       8.423       7.204       5.397       2.966      3.0253E-02

 HEAD WILL BE SAVED ON UNIT   51 AT END OF TIME STEP   73, STRESS PERIOD    2

 DRAWDOWN WILL BE SAVED ON UNIT   52 AT END OF TIME STEP   73, STRESS PERIOD    2
1
  VOLUMETRIC BUDGET FOR ENTIRE MODEL AT END OF TIME STEP   73, STRESS PERIOD   2
  ------------------------------------------------------------------------------

     CUMULATIVE VOLUMES      L**3       RATES FOR THIS TIME STEP      L**3/T
     ------------------                 ------------------------

           IN:                                      IN:
           ---                                      ---
             STORAGE =      274507.8750               STORAGE =        1473.8065
       CONSTANT HEAD =           0.0000         CONSTANT HEAD =           0.0000
               WELLS =           0.0000                 WELLS =           0.0000
     HEAD DEP BOUNDS =         637.1564       HEAD DEP BOUNDS =          38.8044

            TOTAL IN =      275145.0312              TOTAL IN =        1512.6110

          OUT:                                     OUT:
          ----                                     ----
             STORAGE =           0.0000               STORAGE =           0.0000
       CONSTANT HEAD =           0.0000         CONSTANT HEAD =           0.0000
               WELLS =           0.0000                 WELLS =           0.0000
     HEAD DEP BOUNDS =      275145.0625       HEAD DEP BOUNDS =        1512.6351

           TOTAL OUT =      275145.0625             TOTAL OUT =        1512.6351

            IN - OUT =      -3.1250E-02              IN - OUT =      -2.4170E-02

 PERCENT DISCREPANCY =          -0.00     PERCENT DISCREPANCY =          -0.00






         TIME SUMMARY AT END OF TIME STEP   73 IN STRESS PERIOD    2
                    SECONDS     MINUTES      HOURS       DAYS        YEARS
                    -----------------------------------------------------------
   TIME STEP LENGTH  86400.      1440.0      24.000     1.00000     2.73785E-03
 STRESS PERIOD TIME 6.30720E+06 1.05120E+05  1752.0      73.000     0.19986    
         TOTAL TIME 6.39360E+06 1.06560E+05  1776.0      74.000     0.20260    
1
 
 SOLVING FOR HEAD 

 OUTPUT CONTROL FOR STRESS PERIOD    2   TIME STEP   74
    SAVE HEAD FOR ALL LAYERS
    SAVE DRAWDOWN FOR ALL LAYERS
    SAVE BUDGET
    PRINT HEAD FOR ALL LAYERS
    PRINT BUDGET
 UBDSV1 SAVING "         STORAGE" ON UNIT  53 AT TIME STEP 74, STRESS PERIOD   2
 UBDSV2 SAVING "   CONSTANT HEAD" ON UNIT  53 AT TIME STEP 74, STRESS PERIOD   2
 UBDSV1 SAVING "FLOW RIGHT FACE " ON UNIT  53 AT TIME STEP 74, STRESS PERIOD   2
 UBDSV1 SAVING "FLOW FRONT FACE " ON UNIT  53 AT TIME STEP 74, STRESS PERIOD   2
1
              HEAD IN LAYER   1 AT END OF TIME STEP  74 IN STRESS PERIOD    2
  ---------------------------------------------------------------------------

            1           2           3           4           5           6           7           8           9          10
 ........................................................................................................................
   1    9.999       9.931       9.815       9.588       9.156       8.397       7.173       5.367       2.947      3.0053E-02
   2    9.999       9.931       9.815       9.588       9.156       8.397       7.173       5.367       2.947      3.0053E-02
   3    9.999       9.931       9.815       9.588       9.156       8.397       7.173       5.367       2.947      3.0053E-02
   4    9.999       9.931       9.815       9.588       9.156       8.397       7.173       5.367       2.947      3.0053E-02
   5    9.999       9.931       9.815       9.588       9.156       8.397       7.173       5.367       2.947      3.0053E-02
   6    9.999       9.931       9.815       9.588       9.156       8.397       7.173       5.367       2.947      3.0053E-02
   7    9.999       9.931       9.815       9.588       9.156       8.397       7.173       5.367       2.947      3.0053E-02
   8    9.999       9.931       9.815       9.588       9.156       8.397       7.173       5.367       2.947      3.0053E-02
   9    9.999       9.931       9.815       9.588       9.156       8.397       7.173       5.367       2.947      3.0053E-02
  10    9.999       9.931       9.815       9.588       9.156       8.397       7.173       5.367       2.947      3.0053E-02

 HEAD WILL BE SAVED ON UNIT   51 AT END OF TIME STEP   74, STRESS PERIOD    2

 DRAWDOWN WILL BE SAVED ON UNIT   52 AT END OF TIME STEP   74, STRESS PERIOD    2
1
  VOLUMETRIC BUDGET FOR ENTIRE MODEL AT END OF TIME STEP   74, STRESS PERIOD   2
  ------------------------------------------------------------------------------

     CUMULATIVE VOLUMES      L**3       RATES FOR THIS TIME STEP      L**3/T
     ------------------                 ------------------------

           IN:                                      IN:
           ---                                      ---
             STORAGE =      275970.0000               STORAGE =        1462.1160
       CONSTANT HEAD =           0.0000         CONSTANT HEAD =           0.0000
               WELLS =           0.0000                 WELLS =           0.0000
     HEAD DEP BOUNDS =         677.6865       HEAD DEP BOUNDS =          40.5300

            TOTAL IN =      276647.6875              TOTAL IN =        1502.6460

          OUT:                                     OUT:
          ----                                     ----
             STORAGE =           0.0000               STORAGE =           0.0000
       CONSTANT HEAD =           0.0000         CONSTANT HEAD =           0.0000
               WELLS =           0.0000                 WELLS =           0.0000
     HEAD DEP BOUNDS =      276647.6875       HEAD DEP BOUNDS =        1502.6285

           TOTAL OUT =      276647.6875             TOTAL OUT =        1502.6285

            IN - OUT =           0.0000              IN - OUT =       1.7456E-02

 PERCENT DISCREPANCY =           0.00     PERCENT DISCREPANCY =           0.00






         TIME SUMMARY AT END OF TIME STEP   74 IN STRESS PERIOD    2
                    SECONDS     MINUTES      HOURS       DAYS        YEARS
                    -----------------------------------------------------------
   TIME STEP LENGTH  86400.      1440.0      24.000     1.00000     2.73785E-03
 STRESS PERIOD TIME 6.39360E+06 1.06560E+05  1776.0      74.000     0.20260    
         TOTAL TIME 6.48000E+06 1.08000E+05  1800.0      75.000     0.20534    
1
 
 SOLVING FOR HEAD 

 OUTPUT CONTROL FOR STRESS PERIOD    2   TIME STEP   75
    SAVE HEAD FOR ALL LAYERS
    SAVE DRAWDOWN FOR ALL LAYERS
    SAVE BUDGET
    PRINT HEAD FOR ALL LAYERS
    PRINT BUDGET
 UBDSV1 SAVING "         STORAGE" ON UNIT  53 AT TIME STEP 75, STRESS PERIOD   2
 UBDSV2 SAVING "   CONSTANT HEAD" ON UNIT  53 AT TIME STEP 75, STRESS PERIOD   2
 UBDSV1 SAVING "FLOW RIGHT FACE " ON UNIT  53 AT TIME STEP 75, STRESS PERIOD   2
 UBDSV1 SAVING "FLOW FRONT FACE " ON UNIT  53 AT TIME STEP 75, STRESS PERIOD   2
1
              HEAD IN LAYER   1 AT END OF TIME STEP  75 IN STRESS PERIOD    2
  ---------------------------------------------------------------------------

            1           2           3           4           5           6           7           8           9          10
 ........................................................................................................................
   1    9.999       9.928       9.809       9.575       9.137       8.371       7.142       5.338       2.928      2.9856E-02
   2    9.999       9.928       9.809       9.575       9.137       8.371       7.142       5.338       2.928      2.9856E-02
   3    9.999       9.928       9.809       9.575       9.137       8.371       7.142       5.338       2.928      2.9856E-02
   4    9.999       9.928       9.809       9.575       9.137       8.371       7.142       5.338       2.928      2.9856E-02
   5    9.999       9.928       9.809       9.575       9.137       8.371       7.142       5.338       2.928      2.9856E-02
   6    9.999       9.928       9.809       9.575       9.137       8.371       7.142       5.338       2.928      2.9856E-02
   7    9.999       9.928       9.809       9.575       9.137       8.371       7.142       5.338       2.928      2.9856E-02
   8    9.999       9.928       9.809       9.575       9.137       8.371       7.142       5.338       2.928      2.9856E-02
   9    9.999       9.928       9.809       9.575       9.137       8.371       7.142       5.338       2.928      2.9856E-02
  10    9.999       9.928       9.809       9.575       9.137       8.371       7.142       5.338       2.928      2.9856E-02

 HEAD WILL BE SAVED ON UNIT   51 AT END OF TIME STEP   75, STRESS PERIOD    2

 DRAWDOWN WILL BE SAVED ON UNIT   52 AT END OF TIME STEP   75, STRESS PERIOD    2
1
  VOLUMETRIC BUDGET FOR ENTIRE MODEL AT END OF TIME STEP   75, STRESS PERIOD   2
  ------------------------------------------------------------------------------

     CUMULATIVE VOLUMES      L**3       RATES FOR THIS TIME STEP      L**3/T
     ------------------                 ------------------------

           IN:                                      IN:
           ---                                      ---
             STORAGE =      277420.5625               STORAGE =        1450.5562
       CONSTANT HEAD =           0.0000         CONSTANT HEAD =           0.0000
               WELLS =           0.0000                 WELLS =           0.0000
     HEAD DEP BOUNDS =         719.9034       HEAD DEP BOUNDS =          42.2169

            TOTAL IN =      278140.4688              TOTAL IN =        1492.7731

          OUT:                                     OUT:
          ----                                     ----
             STORAGE =           0.0000               STORAGE =           0.0000
       CONSTANT HEAD =           0.0000         CONSTANT HEAD =           0.0000
               WELLS =           0.0000                 WELLS =           0.0000
     HEAD DEP BOUNDS =      278140.5000       HEAD DEP BOUNDS =        1492.8082

           TOTAL OUT =      278140.5000             TOTAL OUT =        1492.8082

            IN - OUT =      -3.1250E-02              IN - OUT =      -3.5156E-02

 PERCENT DISCREPANCY =          -0.00     PERCENT DISCREPANCY =          -0.00






         TIME SUMMARY AT END OF TIME STEP   75 IN STRESS PERIOD    2
                    SECONDS     MINUTES      HOURS       DAYS        YEARS
                    -----------------------------------------------------------
   TIME STEP LENGTH  86400.      1440.0      24.000     1.00000     2.73785E-03
 STRESS PERIOD TIME 6.48000E+06 1.08000E+05  1800.0      75.000     0.20534    
         TOTAL TIME 6.56640E+06 1.09440E+05  1824.0      76.000     0.20808    
1
 
 SOLVING FOR HEAD 

 OUTPUT CONTROL FOR STRESS PERIOD    2   TIME STEP   76
    SAVE HEAD FOR ALL LAYERS
    SAVE DRAWDOWN FOR ALL LAYERS
    SAVE BUDGET
    PRINT HEAD FOR ALL LAYERS
    PRINT BUDGET
 UBDSV1 SAVING "         STORAGE" ON UNIT  53 AT TIME STEP 76, STRESS PERIOD   2
 UBDSV2 SAVING "   CONSTANT HEAD" ON UNIT  53 AT TIME STEP 76, STRESS PERIOD   2
 UBDSV1 SAVING "FLOW RIGHT FACE " ON UNIT  53 AT TIME STEP 76, STRESS PERIOD   2
 UBDSV1 SAVING "FLOW FRONT FACE " ON UNIT  53 AT TIME STEP 76, STRESS PERIOD   2
1
              HEAD IN LAYER   1 AT END OF TIME STEP  76 IN STRESS PERIOD    2
  ---------------------------------------------------------------------------

            1           2           3           4           5           6           7           8           9          10
 ........................................................................................................................
   1    9.999       9.925       9.802       9.563       9.118       8.345       7.112       5.310       2.910      2.9664E-02
   2    9.999       9.925       9.802       9.563       9.118       8.345       7.112       5.310       2.910      2.9664E-02
   3    9.999       9.925       9.802       9.563       9.118       8.345       7.112       5.310       2.910      2.9664E-02
   4    9.999       9.925       9.802       9.563       9.118       8.345       7.112       5.310       2.910      2.9664E-02
   5    9.999       9.925       9.802       9.563       9.118       8.345       7.112       5.310       2.910      2.9664E-02
   6    9.999       9.925       9.802       9.563       9.118       8.345       7.112       5.310       2.910      2.9664E-02
   7    9.999       9.925       9.802       9.563       9.118       8.345       7.112       5.310       2.910      2.9664E-02
   8    9.999       9.925       9.802       9.563       9.118       8.345       7.112       5.310       2.910      2.9664E-02
   9    9.999       9.925       9.802       9.563       9.118       8.345       7.112       5.310       2.910      2.9664E-02
  10    9.999       9.925       9.802       9.563       9.118       8.345       7.112       5.310       2.910      2.9664E-02

 HEAD WILL BE SAVED ON UNIT   51 AT END OF TIME STEP   76, STRESS PERIOD    2

 DRAWDOWN WILL BE SAVED ON UNIT   52 AT END OF TIME STEP   76, STRESS PERIOD    2
1
  VOLUMETRIC BUDGET FOR ENTIRE MODEL AT END OF TIME STEP   76, STRESS PERIOD   2
  ------------------------------------------------------------------------------

     CUMULATIVE VOLUMES      L**3       RATES FOR THIS TIME STEP      L**3/T
     ------------------                 ------------------------

           IN:                                      IN:
           ---                                      ---
             STORAGE =      278859.7500               STORAGE =        1439.1815
       CONSTANT HEAD =           0.0000         CONSTANT HEAD =           0.0000
               WELLS =           0.0000                 WELLS =           0.0000
     HEAD DEP BOUNDS =         763.9008       HEAD DEP BOUNDS =          43.9974

            TOTAL IN =      279623.6562              TOTAL IN =        1483.1790

          OUT:                                     OUT:
          ----                                     ----
             STORAGE =           0.0000               STORAGE =           0.0000
       CONSTANT HEAD =           0.0000         CONSTANT HEAD =           0.0000
               WELLS =           0.0000                 WELLS =           0.0000
     HEAD DEP BOUNDS =      279623.6875       HEAD DEP BOUNDS =        1483.1849

           TOTAL OUT =      279623.6875             TOTAL OUT =        1483.1849

            IN - OUT =      -3.1250E-02              IN - OUT =      -5.9814E-03

 PERCENT DISCREPANCY =          -0.00     PERCENT DISCREPANCY =          -0.00






         TIME SUMMARY AT END OF TIME STEP   76 IN STRESS PERIOD    2
                    SECONDS     MINUTES      HOURS       DAYS        YEARS
                    -----------------------------------------------------------
   TIME STEP LENGTH  86400.      1440.0      24.000     1.00000     2.73785E-03
 STRESS PERIOD TIME 6.56640E+06 1.09440E+05  1824.0      76.000     0.20808    
         TOTAL TIME 6.65280E+06 1.10880E+05  1848.0      77.000     0.21081    
1
 
 SOLVING FOR HEAD 

 OUTPUT CONTROL FOR STRESS PERIOD    2   TIME STEP   77
    SAVE HEAD FOR ALL LAYERS
    SAVE DRAWDOWN FOR ALL LAYERS
    SAVE BUDGET
    PRINT HEAD FOR ALL LAYERS
    PRINT BUDGET
 UBDSV1 SAVING "         STORAGE" ON UNIT  53 AT TIME STEP 77, STRESS PERIOD   2
 UBDSV2 SAVING "   CONSTANT HEAD" ON UNIT  53 AT TIME STEP 77, STRESS PERIOD   2
 UBDSV1 SAVING "FLOW RIGHT FACE " ON UNIT  53 AT TIME STEP 77, STRESS PERIOD   2
 UBDSV1 SAVING "FLOW FRONT FACE " ON UNIT  53 AT TIME STEP 77, STRESS PERIOD   2
1
              HEAD IN LAYER   1 AT END OF TIME STEP  77 IN STRESS PERIOD    2
  ---------------------------------------------------------------------------

            1           2           3           4           5           6           7           8           9          10
 ........................................................................................................................
   1    9.999       9.922       9.795       9.551       9.099       8.320       7.082       5.282       2.892      2.9475E-02
   2    9.999       9.922       9.795       9.551       9.099       8.320       7.082       5.282       2.892      2.9475E-02
   3    9.999       9.922       9.795       9.551       9.099       8.320       7.082       5.282       2.892      2.9475E-02
   4    9.999       9.922       9.795       9.551       9.099       8.320       7.082       5.282       2.892      2.9475E-02
   5    9.999       9.922       9.795       9.551       9.099       8.320       7.082       5.282       2.892      2.9475E-02
   6    9.999       9.922       9.795       9.551       9.099       8.320       7.082       5.282       2.892      2.9475E-02
   7    9.999       9.922       9.795       9.551       9.099       8.320       7.082       5.282       2.892      2.9475E-02
   8    9.999       9.922       9.795       9.551       9.099       8.320       7.082       5.282       2.892      2.9475E-02
   9    9.999       9.922       9.795       9.551       9.099       8.320       7.082       5.282       2.892      2.9475E-02
  10    9.999       9.922       9.795       9.551       9.099       8.320       7.082       5.282       2.892      2.9475E-02

 HEAD WILL BE SAVED ON UNIT   51 AT END OF TIME STEP   77, STRESS PERIOD    2

 DRAWDOWN WILL BE SAVED ON UNIT   52 AT END OF TIME STEP   77, STRESS PERIOD    2
1
  VOLUMETRIC BUDGET FOR ENTIRE MODEL AT END OF TIME STEP   77, STRESS PERIOD   2
  ------------------------------------------------------------------------------

     CUMULATIVE VOLUMES      L**3       RATES FOR THIS TIME STEP      L**3/T
     ------------------                 ------------------------

           IN:                                      IN:
           ---                                      ---
             STORAGE =      280287.6875               STORAGE =        1427.9430
       CONSTANT HEAD =           0.0000         CONSTANT HEAD =           0.0000
               WELLS =           0.0000                 WELLS =           0.0000
     HEAD DEP BOUNDS =         809.7054       HEAD DEP BOUNDS =          45.8046

            TOTAL IN =      281097.4062              TOTAL IN =        1473.7476

          OUT:                                     OUT:
          ----                                     ----
             STORAGE =           0.0000               STORAGE =           0.0000
       CONSTANT HEAD =           0.0000         CONSTANT HEAD =           0.0000
               WELLS =           0.0000                 WELLS =           0.0000
     HEAD DEP BOUNDS =      281097.4375       HEAD DEP BOUNDS =        1473.7535

           TOTAL OUT =      281097.4375             TOTAL OUT =        1473.7535

            IN - OUT =      -3.1250E-02              IN - OUT =      -5.9814E-03

 PERCENT DISCREPANCY =          -0.00     PERCENT DISCREPANCY =          -0.00






         TIME SUMMARY AT END OF TIME STEP   77 IN STRESS PERIOD    2
                    SECONDS     MINUTES      HOURS       DAYS        YEARS
                    -----------------------------------------------------------
   TIME STEP LENGTH  86400.      1440.0      24.000     1.00000     2.73785E-03
 STRESS PERIOD TIME 6.65280E+06 1.10880E+05  1848.0      77.000     0.21081    
         TOTAL TIME 6.73920E+06 1.12320E+05  1872.0      78.000     0.21355    
1
 
 SOLVING FOR HEAD 

 OUTPUT CONTROL FOR STRESS PERIOD    2   TIME STEP   78
    SAVE HEAD FOR ALL LAYERS
    SAVE DRAWDOWN FOR ALL LAYERS
    SAVE BUDGET
    PRINT HEAD FOR ALL LAYERS
    PRINT BUDGET
 UBDSV1 SAVING "         STORAGE" ON UNIT  53 AT TIME STEP 78, STRESS PERIOD   2
 UBDSV2 SAVING "   CONSTANT HEAD" ON UNIT  53 AT TIME STEP 78, STRESS PERIOD   2
 UBDSV1 SAVING "FLOW RIGHT FACE " ON UNIT  53 AT TIME STEP 78, STRESS PERIOD   2
 UBDSV1 SAVING "FLOW FRONT FACE " ON UNIT  53 AT TIME STEP 78, STRESS PERIOD   2
1
              HEAD IN LAYER   1 AT END OF TIME STEP  78 IN STRESS PERIOD    2
  ---------------------------------------------------------------------------

            1           2           3           4           5           6           7           8           9          10
 ........................................................................................................................
   1    9.999       9.919       9.788       9.539       9.080       8.294       7.053       5.254       2.874      2.9290E-02
   2    9.999       9.919       9.788       9.539       9.080       8.294       7.053       5.254       2.874      2.9290E-02
   3    9.999       9.919       9.788       9.539       9.080       8.294       7.053       5.254       2.874      2.9290E-02
   4    9.999       9.919       9.788       9.539       9.080       8.294       7.053       5.254       2.874      2.9290E-02
   5    9.999       9.919       9.788       9.539       9.080       8.294       7.053       5.254       2.874      2.9290E-02
   6    9.999       9.919       9.788       9.539       9.080       8.294       7.053       5.254       2.874      2.9290E-02
   7    9.999       9.919       9.788       9.539       9.080       8.294       7.053       5.254       2.874      2.9290E-02
   8    9.999       9.919       9.788       9.539       9.080       8.294       7.053       5.254       2.874      2.9290E-02
   9    9.999       9.919       9.788       9.539       9.080       8.294       7.053       5.254       2.874      2.9290E-02
  10    9.999       9.919       9.788       9.539       9.080       8.294       7.053       5.254       2.874      2.9290E-02

 HEAD WILL BE SAVED ON UNIT   51 AT END OF TIME STEP   78, STRESS PERIOD    2

 DRAWDOWN WILL BE SAVED ON UNIT   52 AT END OF TIME STEP   78, STRESS PERIOD    2
1
  VOLUMETRIC BUDGET FOR ENTIRE MODEL AT END OF TIME STEP   78, STRESS PERIOD   2
  ------------------------------------------------------------------------------

     CUMULATIVE VOLUMES      L**3       RATES FOR THIS TIME STEP      L**3/T
     ------------------                 ------------------------

           IN:                                      IN:
           ---                                      ---
             STORAGE =      281704.5625               STORAGE =        1416.8894
       CONSTANT HEAD =           0.0000         CONSTANT HEAD =           0.0000
               WELLS =           0.0000                 WELLS =           0.0000
     HEAD DEP BOUNDS =         857.3434       HEAD DEP BOUNDS =          47.6379

            TOTAL IN =      282561.9062              TOTAL IN =        1464.5273

          OUT:                                     OUT:
          ----                                     ----
             STORAGE =           0.0000               STORAGE =           0.0000
       CONSTANT HEAD =           0.0000         CONSTANT HEAD =           0.0000
               WELLS =           0.0000                 WELLS =           0.0000
     HEAD DEP BOUNDS =      282561.9375       HEAD DEP BOUNDS =        1464.4935

           TOTAL OUT =      282561.9375             TOTAL OUT =        1464.4935

            IN - OUT =      -3.1250E-02              IN - OUT =       3.3813E-02

 PERCENT DISCREPANCY =          -0.00     PERCENT DISCREPANCY =           0.00






         TIME SUMMARY AT END OF TIME STEP   78 IN STRESS PERIOD    2
                    SECONDS     MINUTES      HOURS       DAYS        YEARS
                    -----------------------------------------------------------
   TIME STEP LENGTH  86400.      1440.0      24.000     1.00000     2.73785E-03
 STRESS PERIOD TIME 6.73920E+06 1.12320E+05  1872.0      78.000     0.21355    
         TOTAL TIME 6.82560E+06 1.13760E+05  1896.0      79.000     0.21629    
1
 
 SOLVING FOR HEAD 

 OUTPUT CONTROL FOR STRESS PERIOD    2   TIME STEP   79
    SAVE HEAD FOR ALL LAYERS
    SAVE DRAWDOWN FOR ALL LAYERS
    SAVE BUDGET
    PRINT HEAD FOR ALL LAYERS
    PRINT BUDGET
 UBDSV1 SAVING "         STORAGE" ON UNIT  53 AT TIME STEP 79, STRESS PERIOD   2
 UBDSV2 SAVING "   CONSTANT HEAD" ON UNIT  53 AT TIME STEP 79, STRESS PERIOD   2
 UBDSV1 SAVING "FLOW RIGHT FACE " ON UNIT  53 AT TIME STEP 79, STRESS PERIOD   2
 UBDSV1 SAVING "FLOW FRONT FACE " ON UNIT  53 AT TIME STEP 79, STRESS PERIOD   2
1
              HEAD IN LAYER   1 AT END OF TIME STEP  79 IN STRESS PERIOD    2
  ---------------------------------------------------------------------------

            1           2           3           4           5           6           7           8           9          10
 ........................................................................................................................
   1    9.999       9.916       9.781       9.526       9.061       8.269       7.024       5.227       2.857      2.9108E-02
   2    9.999       9.916       9.781       9.526       9.061       8.269       7.024       5.227       2.857      2.9108E-02
   3    9.999       9.916       9.781       9.526       9.061       8.269       7.024       5.227       2.857      2.9108E-02
   4    9.999       9.916       9.781       9.526       9.061       8.269       7.024       5.227       2.857      2.9108E-02
   5    9.999       9.916       9.781       9.526       9.061       8.269       7.024       5.227       2.857      2.9108E-02
   6    9.999       9.916       9.781       9.526       9.061       8.269       7.024       5.227       2.857      2.9108E-02
   7    9.999       9.916       9.781       9.526       9.061       8.269       7.024       5.227       2.857      2.9108E-02
   8    9.999       9.916       9.781       9.526       9.061       8.269       7.024       5.227       2.857      2.9108E-02
   9    9.999       9.916       9.781       9.526       9.061       8.269       7.024       5.227       2.857      2.9108E-02
  10    9.999       9.916       9.781       9.526       9.061       8.269       7.024       5.227       2.857      2.9108E-02

 HEAD WILL BE SAVED ON UNIT   51 AT END OF TIME STEP   79, STRESS PERIOD    2

 DRAWDOWN WILL BE SAVED ON UNIT   52 AT END OF TIME STEP   79, STRESS PERIOD    2
1
  VOLUMETRIC BUDGET FOR ENTIRE MODEL AT END OF TIME STEP   79, STRESS PERIOD   2
  ------------------------------------------------------------------------------

     CUMULATIVE VOLUMES      L**3       RATES FOR THIS TIME STEP      L**3/T
     ------------------                 ------------------------

           IN:                                      IN:
           ---                                      ---
             STORAGE =      283110.5000               STORAGE =        1405.9238
       CONSTANT HEAD =           0.0000         CONSTANT HEAD =           0.0000
               WELLS =           0.0000                 WELLS =           0.0000
     HEAD DEP BOUNDS =         906.8398       HEAD DEP BOUNDS =          49.4964

            TOTAL IN =      284017.3438              TOTAL IN =        1455.4203

          OUT:                                     OUT:
          ----                                     ----
             STORAGE =           0.0000               STORAGE =           0.0000
       CONSTANT HEAD =           0.0000         CONSTANT HEAD =           0.0000
               WELLS =           0.0000                 WELLS =           0.0000
     HEAD DEP BOUNDS =      284017.3438       HEAD DEP BOUNDS =        1455.4003

           TOTAL OUT =      284017.3438             TOTAL OUT =        1455.4003

            IN - OUT =           0.0000              IN - OUT =       2.0020E-02

 PERCENT DISCREPANCY =           0.00     PERCENT DISCREPANCY =           0.00






         TIME SUMMARY AT END OF TIME STEP   79 IN STRESS PERIOD    2
                    SECONDS     MINUTES      HOURS       DAYS        YEARS
                    -----------------------------------------------------------
   TIME STEP LENGTH  86400.      1440.0      24.000     1.00000     2.73785E-03
 STRESS PERIOD TIME 6.82560E+06 1.13760E+05  1896.0      79.000     0.21629    
         TOTAL TIME 6.91200E+06 1.15200E+05  1920.0      80.000     0.21903    
1
 
 SOLVING FOR HEAD 

 OUTPUT CONTROL FOR STRESS PERIOD    2   TIME STEP   80
    SAVE HEAD FOR ALL LAYERS
    SAVE DRAWDOWN FOR ALL LAYERS
    SAVE BUDGET
    PRINT HEAD FOR ALL LAYERS
    PRINT BUDGET
 UBDSV1 SAVING "         STORAGE" ON UNIT  53 AT TIME STEP 80, STRESS PERIOD   2
 UBDSV2 SAVING "   CONSTANT HEAD" ON UNIT  53 AT TIME STEP 80, STRESS PERIOD   2
 UBDSV1 SAVING "FLOW RIGHT FACE " ON UNIT  53 AT TIME STEP 80, STRESS PERIOD   2
 UBDSV1 SAVING "FLOW FRONT FACE " ON UNIT  53 AT TIME STEP 80, STRESS PERIOD   2
1
              HEAD IN LAYER   1 AT END OF TIME STEP  80 IN STRESS PERIOD    2
  ---------------------------------------------------------------------------

            1           2           3           4           5           6           7           8           9          10
 ........................................................................................................................
   1    9.999       9.913       9.774       9.514       9.042       8.244       6.995       5.200       2.840      2.8930E-02
   2    9.999       9.913       9.774       9.514       9.042       8.244       6.995       5.200       2.840      2.8930E-02
   3    9.999       9.913       9.774       9.514       9.042       8.244       6.995       5.200       2.840      2.8930E-02
   4    9.999       9.913       9.774       9.514       9.042       8.244       6.995       5.200       2.840      2.8930E-02
   5    9.999       9.913       9.774       9.514       9.042       8.244       6.995       5.200       2.840      2.8930E-02
   6    9.999       9.913       9.774       9.514       9.042       8.244       6.995       5.200       2.840      2.8930E-02
   7    9.999       9.913       9.774       9.514       9.042       8.244       6.995       5.200       2.840      2.8930E-02
   8    9.999       9.913       9.774       9.514       9.042       8.244       6.995       5.200       2.840      2.8930E-02
   9    9.999       9.913       9.774       9.514       9.042       8.244       6.995       5.200       2.840      2.8930E-02
  10    9.999       9.913       9.774       9.514       9.042       8.244       6.995       5.200       2.840      2.8930E-02

 HEAD WILL BE SAVED ON UNIT   51 AT END OF TIME STEP   80, STRESS PERIOD    2

 DRAWDOWN WILL BE SAVED ON UNIT   52 AT END OF TIME STEP   80, STRESS PERIOD    2
1
  VOLUMETRIC BUDGET FOR ENTIRE MODEL AT END OF TIME STEP   80, STRESS PERIOD   2
  ------------------------------------------------------------------------------

     CUMULATIVE VOLUMES      L**3       RATES FOR THIS TIME STEP      L**3/T
     ------------------                 ------------------------

           IN:                                      IN:
           ---                                      ---
             STORAGE =      284505.6250               STORAGE =        1395.1398
       CONSTANT HEAD =           0.0000         CONSTANT HEAD =           0.0000
               WELLS =           0.0000                 WELLS =           0.0000
     HEAD DEP BOUNDS =         958.2194       HEAD DEP BOUNDS =          51.3796

            TOTAL IN =      285463.8438              TOTAL IN =        1446.5193

          OUT:                                     OUT:
          ----                                     ----
             STORAGE =           0.0000               STORAGE =           0.0000
       CONSTANT HEAD =           0.0000         CONSTANT HEAD =           0.0000
               WELLS =           0.0000                 WELLS =           0.0000
     HEAD DEP BOUNDS =      285463.8125       HEAD DEP BOUNDS =        1446.4774

           TOTAL OUT =      285463.8125             TOTAL OUT =        1446.4774

            IN - OUT =       3.1250E-02              IN - OUT =       4.1870E-02

 PERCENT DISCREPANCY =           0.00     PERCENT DISCREPANCY =           0.00






         TIME SUMMARY AT END OF TIME STEP   80 IN STRESS PERIOD    2
                    SECONDS     MINUTES      HOURS       DAYS        YEARS
                    -----------------------------------------------------------
   TIME STEP LENGTH  86400.      1440.0      24.000     1.00000     2.73785E-03
 STRESS PERIOD TIME 6.91200E+06 1.15200E+05  1920.0      80.000     0.21903    
         TOTAL TIME 6.99840E+06 1.16640E+05  1944.0      81.000     0.22177    
1
 
 SOLVING FOR HEAD 

 OUTPUT CONTROL FOR STRESS PERIOD    2   TIME STEP   81
    SAVE HEAD FOR ALL LAYERS
    SAVE DRAWDOWN FOR ALL LAYERS
    SAVE BUDGET
    PRINT HEAD FOR ALL LAYERS
    PRINT BUDGET
 UBDSV1 SAVING "         STORAGE" ON UNIT  53 AT TIME STEP 81, STRESS PERIOD   2
 UBDSV2 SAVING "   CONSTANT HEAD" ON UNIT  53 AT TIME STEP 81, STRESS PERIOD   2
 UBDSV1 SAVING "FLOW RIGHT FACE " ON UNIT  53 AT TIME STEP 81, STRESS PERIOD   2
 UBDSV1 SAVING "FLOW FRONT FACE " ON UNIT  53 AT TIME STEP 81, STRESS PERIOD   2
1
              HEAD IN LAYER   1 AT END OF TIME STEP  81 IN STRESS PERIOD    2
  ---------------------------------------------------------------------------

            1           2           3           4           5           6           7           8           9          10
 ........................................................................................................................
   1    9.999       9.910       9.766       9.501       9.023       8.219       6.967       5.174       2.823      2.8754E-02
   2    9.999       9.910       9.766       9.501       9.023       8.219       6.967       5.174       2.823      2.8754E-02
   3    9.999       9.910       9.766       9.501       9.023       8.219       6.967       5.174       2.823      2.8754E-02
   4    9.999       9.910       9.766       9.501       9.023       8.219       6.967       5.174       2.823      2.8754E-02
   5    9.999       9.910       9.766       9.501       9.023       8.219       6.967       5.174       2.823      2.8754E-02
   6    9.999       9.910       9.766       9.501       9.023       8.219       6.967       5.174       2.823      2.8754E-02
   7    9.999       9.910       9.766       9.501       9.023       8.219       6.967       5.174       2.823      2.8754E-02
   8    9.999       9.910       9.766       9.501       9.023       8.219       6.967       5.174       2.823      2.8754E-02
   9    9.999       9.910       9.766       9.501       9.023       8.219       6.967       5.174       2.823      2.8754E-02
  10    9.999       9.910       9.766       9.501       9.023       8.219       6.967       5.174       2.823      2.8754E-02

 HEAD WILL BE SAVED ON UNIT   51 AT END OF TIME STEP   81, STRESS PERIOD    2

 DRAWDOWN WILL BE SAVED ON UNIT   52 AT END OF TIME STEP   81, STRESS PERIOD    2
1
  VOLUMETRIC BUDGET FOR ENTIRE MODEL AT END OF TIME STEP   81, STRESS PERIOD   2
  ------------------------------------------------------------------------------

     CUMULATIVE VOLUMES      L**3       RATES FOR THIS TIME STEP      L**3/T
     ------------------                 ------------------------

           IN:                                      IN:
           ---                                      ---
             STORAGE =      285890.0938               STORAGE =        1384.4590
       CONSTANT HEAD =           0.0000         CONSTANT HEAD =           0.0000
               WELLS =           0.0000                 WELLS =           0.0000
     HEAD DEP BOUNDS =        1011.5062       HEAD DEP BOUNDS =          53.2868

            TOTAL IN =      286901.5938              TOTAL IN =        1437.7457

          OUT:                                     OUT:
          ----                                     ----
             STORAGE =           0.0000               STORAGE =           0.0000
       CONSTANT HEAD =           0.0000         CONSTANT HEAD =           0.0000
               WELLS =           0.0000                 WELLS =           0.0000
     HEAD DEP BOUNDS =      286901.5312       HEAD DEP BOUNDS =        1437.7131

           TOTAL OUT =      286901.5312             TOTAL OUT =        1437.7131

            IN - OUT =       6.2500E-02              IN - OUT =       3.2593E-02

 PERCENT DISCREPANCY =           0.00     PERCENT DISCREPANCY =           0.00






         TIME SUMMARY AT END OF TIME STEP   81 IN STRESS PERIOD    2
                    SECONDS     MINUTES      HOURS       DAYS        YEARS
                    -----------------------------------------------------------
   TIME STEP LENGTH  86400.      1440.0      24.000     1.00000     2.73785E-03
 STRESS PERIOD TIME 6.99840E+06 1.16640E+05  1944.0      81.000     0.22177    
         TOTAL TIME 7.08480E+06 1.18080E+05  1968.0      82.000     0.22450    
1
 
 SOLVING FOR HEAD 

 OUTPUT CONTROL FOR STRESS PERIOD    2   TIME STEP   82
    SAVE HEAD FOR ALL LAYERS
    SAVE DRAWDOWN FOR ALL LAYERS
    SAVE BUDGET
    PRINT HEAD FOR ALL LAYERS
    PRINT BUDGET
 UBDSV1 SAVING "         STORAGE" ON UNIT  53 AT TIME STEP 82, STRESS PERIOD   2
 UBDSV2 SAVING "   CONSTANT HEAD" ON UNIT  53 AT TIME STEP 82, STRESS PERIOD   2
 UBDSV1 SAVING "FLOW RIGHT FACE " ON UNIT  53 AT TIME STEP 82, STRESS PERIOD   2
 UBDSV1 SAVING "FLOW FRONT FACE " ON UNIT  53 AT TIME STEP 82, STRESS PERIOD   2
1
              HEAD IN LAYER   1 AT END OF TIME STEP  82 IN STRESS PERIOD    2
  ---------------------------------------------------------------------------

            1           2           3           4           5           6           7           8           9          10
 ........................................................................................................................
   1    9.999       9.906       9.759       9.489       9.005       8.194       6.939       5.148       2.807      2.8582E-02
   2    9.999       9.906       9.759       9.489       9.005       8.194       6.939       5.148       2.807      2.8582E-02
   3    9.999       9.906       9.759       9.489       9.005       8.194       6.939       5.148       2.807      2.8582E-02
   4    9.999       9.906       9.759       9.489       9.005       8.194       6.939       5.148       2.807      2.8582E-02
   5    9.999       9.906       9.759       9.489       9.005       8.194       6.939       5.148       2.807      2.8582E-02
   6    9.999       9.906       9.759       9.489       9.005       8.194       6.939       5.148       2.807      2.8582E-02
   7    9.999       9.906       9.759       9.489       9.005       8.194       6.939       5.148       2.807      2.8582E-02
   8    9.999       9.906       9.759       9.489       9.005       8.194       6.939       5.148       2.807      2.8582E-02
   9    9.999       9.906       9.759       9.489       9.005       8.194       6.939       5.148       2.807      2.8582E-02
  10    9.999       9.906       9.759       9.489       9.005       8.194       6.939       5.148       2.807      2.8582E-02

 HEAD WILL BE SAVED ON UNIT   51 AT END OF TIME STEP   82, STRESS PERIOD    2

 DRAWDOWN WILL BE SAVED ON UNIT   52 AT END OF TIME STEP   82, STRESS PERIOD    2
1
  VOLUMETRIC BUDGET FOR ENTIRE MODEL AT END OF TIME STEP   82, STRESS PERIOD   2
  ------------------------------------------------------------------------------

     CUMULATIVE VOLUMES      L**3       RATES FOR THIS TIME STEP      L**3/T
     ------------------                 ------------------------

           IN:                                      IN:
           ---                                      ---
             STORAGE =      287264.0000               STORAGE =        1373.9098
       CONSTANT HEAD =           0.0000         CONSTANT HEAD =           0.0000
               WELLS =           0.0000                 WELLS =           0.0000
     HEAD DEP BOUNDS =        1066.7239       HEAD DEP BOUNDS =          55.2176

            TOTAL IN =      288330.7188              TOTAL IN =        1429.1274

          OUT:                                     OUT:
          ----                                     ----
             STORAGE =           0.0000               STORAGE =           0.0000
       CONSTANT HEAD =           0.0000         CONSTANT HEAD =           0.0000
               WELLS =           0.0000                 WELLS =           0.0000
     HEAD DEP BOUNDS =      288330.6250       HEAD DEP BOUNDS =        1429.1030

           TOTAL OUT =      288330.6250             TOTAL OUT =        1429.1030

            IN - OUT =       9.3750E-02              IN - OUT =       2.4414E-02

 PERCENT DISCREPANCY =           0.00     PERCENT DISCREPANCY =           0.00






         TIME SUMMARY AT END OF TIME STEP   82 IN STRESS PERIOD    2
                    SECONDS     MINUTES      HOURS       DAYS        YEARS
                    -----------------------------------------------------------
   TIME STEP LENGTH  86400.      1440.0      24.000     1.00000     2.73785E-03
 STRESS PERIOD TIME 7.08480E+06 1.18080E+05  1968.0      82.000     0.22450    
         TOTAL TIME 7.17120E+06 1.19520E+05  1992.0      83.000     0.22724    
1
 
 SOLVING FOR HEAD 

 OUTPUT CONTROL FOR STRESS PERIOD    2   TIME STEP   83
    SAVE HEAD FOR ALL LAYERS
    SAVE DRAWDOWN FOR ALL LAYERS
    SAVE BUDGET
    PRINT HEAD FOR ALL LAYERS
    PRINT BUDGET
 UBDSV1 SAVING "         STORAGE" ON UNIT  53 AT TIME STEP 83, STRESS PERIOD   2
 UBDSV2 SAVING "   CONSTANT HEAD" ON UNIT  53 AT TIME STEP 83, STRESS PERIOD   2
 UBDSV1 SAVING "FLOW RIGHT FACE " ON UNIT  53 AT TIME STEP 83, STRESS PERIOD   2
 UBDSV1 SAVING "FLOW FRONT FACE " ON UNIT  53 AT TIME STEP 83, STRESS PERIOD   2
1
              HEAD IN LAYER   1 AT END OF TIME STEP  83 IN STRESS PERIOD    2
  ---------------------------------------------------------------------------

            1           2           3           4           5           6           7           8           9          10
 ........................................................................................................................
   1    9.999       9.903       9.752       9.476       8.986       8.169       6.911       5.122       2.791      2.8413E-02
   2    9.999       9.903       9.752       9.476       8.986       8.169       6.911       5.122       2.791      2.8413E-02
   3    9.999       9.903       9.752       9.476       8.986       8.169       6.911       5.122       2.791      2.8413E-02
   4    9.999       9.903       9.752       9.476       8.986       8.169       6.911       5.122       2.791      2.8413E-02
   5    9.999       9.903       9.752       9.476       8.986       8.169       6.911       5.122       2.791      2.8413E-02
   6    9.999       9.903       9.752       9.476       8.986       8.169       6.911       5.122       2.791      2.8413E-02
   7    9.999       9.903       9.752       9.476       8.986       8.169       6.911       5.122       2.791      2.8413E-02
   8    9.999       9.903       9.752       9.476       8.986       8.169       6.911       5.122       2.791      2.8413E-02
   9    9.999       9.903       9.752       9.476       8.986       8.169       6.911       5.122       2.791      2.8413E-02
  10    9.999       9.903       9.752       9.476       8.986       8.169       6.911       5.122       2.791      2.8413E-02

 HEAD WILL BE SAVED ON UNIT   51 AT END OF TIME STEP   83, STRESS PERIOD    2

 DRAWDOWN WILL BE SAVED ON UNIT   52 AT END OF TIME STEP   83, STRESS PERIOD    2
1
  VOLUMETRIC BUDGET FOR ENTIRE MODEL AT END OF TIME STEP   83, STRESS PERIOD   2
  ------------------------------------------------------------------------------

     CUMULATIVE VOLUMES      L**3       RATES FOR THIS TIME STEP      L**3/T
     ------------------                 ------------------------

           IN:                                      IN:
           ---                                      ---
             STORAGE =      288627.5000               STORAGE =        1363.4960
       CONSTANT HEAD =           0.0000         CONSTANT HEAD =           0.0000
               WELLS =           0.0000                 WELLS =           0.0000
     HEAD DEP BOUNDS =        1123.8954       HEAD DEP BOUNDS =          57.1715

            TOTAL IN =      289751.4062              TOTAL IN =        1420.6675

          OUT:                                     OUT:
          ----                                     ----
             STORAGE =           0.0000               STORAGE =           0.0000
       CONSTANT HEAD =           0.0000         CONSTANT HEAD =           0.0000
               WELLS =           0.0000                 WELLS =           0.0000
     HEAD DEP BOUNDS =      289751.2812       HEAD DEP BOUNDS =        1420.6515

           TOTAL OUT =      289751.2812             TOTAL OUT =        1420.6515

            IN - OUT =           0.1250              IN - OUT =       1.5991E-02

 PERCENT DISCREPANCY =           0.00     PERCENT DISCREPANCY =           0.00






         TIME SUMMARY AT END OF TIME STEP   83 IN STRESS PERIOD    2
                    SECONDS     MINUTES      HOURS       DAYS        YEARS
                    -----------------------------------------------------------
   TIME STEP LENGTH  86400.      1440.0      24.000     1.00000     2.73785E-03
 STRESS PERIOD TIME 7.17120E+06 1.19520E+05  1992.0      83.000     0.22724    
         TOTAL TIME 7.25760E+06 1.20960E+05  2016.0      84.000     0.22998    
1
 
 SOLVING FOR HEAD 

 OUTPUT CONTROL FOR STRESS PERIOD    2   TIME STEP   84
    SAVE HEAD FOR ALL LAYERS
    SAVE DRAWDOWN FOR ALL LAYERS
    SAVE BUDGET
    PRINT HEAD FOR ALL LAYERS
    PRINT BUDGET
 UBDSV1 SAVING "         STORAGE" ON UNIT  53 AT TIME STEP 84, STRESS PERIOD   2
 UBDSV2 SAVING "   CONSTANT HEAD" ON UNIT  53 AT TIME STEP 84, STRESS PERIOD   2
 UBDSV1 SAVING "FLOW RIGHT FACE " ON UNIT  53 AT TIME STEP 84, STRESS PERIOD   2
 UBDSV1 SAVING "FLOW FRONT FACE " ON UNIT  53 AT TIME STEP 84, STRESS PERIOD   2
1
              HEAD IN LAYER   1 AT END OF TIME STEP  84 IN STRESS PERIOD    2
  ---------------------------------------------------------------------------

            1           2           3           4           5           6           7           8           9          10
 ........................................................................................................................
   1    9.999       9.900       9.744       9.463       8.967       8.145       6.883       5.097       2.775      2.8247E-02
   2    9.999       9.900       9.744       9.463       8.967       8.145       6.883       5.097       2.775      2.8247E-02
   3    9.999       9.900       9.744       9.463       8.967       8.145       6.883       5.097       2.775      2.8247E-02
   4    9.999       9.900       9.744       9.463       8.967       8.145       6.883       5.097       2.775      2.8247E-02
   5    9.999       9.900       9.744       9.463       8.967       8.145       6.883       5.097       2.775      2.8247E-02
   6    9.999       9.900       9.744       9.463       8.967       8.145       6.883       5.097       2.775      2.8247E-02
   7    9.999       9.900       9.744       9.463       8.967       8.145       6.883       5.097       2.775      2.8247E-02
   8    9.999       9.900       9.744       9.463       8.967       8.145       6.883       5.097       2.775      2.8247E-02
   9    9.999       9.900       9.744       9.463       8.967       8.145       6.883       5.097       2.775      2.8247E-02
  10    9.999       9.900       9.744       9.463       8.967       8.145       6.883       5.097       2.775      2.8247E-02

 HEAD WILL BE SAVED ON UNIT   51 AT END OF TIME STEP   84, STRESS PERIOD    2

 DRAWDOWN WILL BE SAVED ON UNIT   52 AT END OF TIME STEP   84, STRESS PERIOD    2
1
  VOLUMETRIC BUDGET FOR ENTIRE MODEL AT END OF TIME STEP   84, STRESS PERIOD   2
  ------------------------------------------------------------------------------

     CUMULATIVE VOLUMES      L**3       RATES FOR THIS TIME STEP      L**3/T
     ------------------                 ------------------------

           IN:                                      IN:
           ---                                      ---
             STORAGE =      289980.6875               STORAGE =        1353.1959
       CONSTANT HEAD =           0.0000         CONSTANT HEAD =           0.0000
               WELLS =           0.0000                 WELLS =           0.0000
     HEAD DEP BOUNDS =        1183.0425       HEAD DEP BOUNDS =          59.1471

            TOTAL IN =      291163.7188              TOTAL IN =        1412.3430

          OUT:                                     OUT:
          ----                                     ----
             STORAGE =           0.0000               STORAGE =           0.0000
       CONSTANT HEAD =           0.0000         CONSTANT HEAD =           0.0000
               WELLS =           0.0000                 WELLS =           0.0000
     HEAD DEP BOUNDS =      291163.6250       HEAD DEP BOUNDS =        1412.3469

           TOTAL OUT =      291163.6250             TOTAL OUT =        1412.3469

            IN - OUT =       9.3750E-02              IN - OUT =      -3.9062E-03

 PERCENT DISCREPANCY =           0.00     PERCENT DISCREPANCY =          -0.00






         TIME SUMMARY AT END OF TIME STEP   84 IN STRESS PERIOD    2
                    SECONDS     MINUTES      HOURS       DAYS        YEARS
                    -----------------------------------------------------------
   TIME STEP LENGTH  86400.      1440.0      24.000     1.00000     2.73785E-03
 STRESS PERIOD TIME 7.25760E+06 1.20960E+05  2016.0      84.000     0.22998    
         TOTAL TIME 7.34400E+06 1.22400E+05  2040.0      85.000     0.23272    
1
 
 SOLVING FOR HEAD 

 OUTPUT CONTROL FOR STRESS PERIOD    2   TIME STEP   85
    SAVE HEAD FOR ALL LAYERS
    SAVE DRAWDOWN FOR ALL LAYERS
    SAVE BUDGET
    PRINT HEAD FOR ALL LAYERS
    PRINT BUDGET
 UBDSV1 SAVING "         STORAGE" ON UNIT  53 AT TIME STEP 85, STRESS PERIOD   2
 UBDSV2 SAVING "   CONSTANT HEAD" ON UNIT  53 AT TIME STEP 85, STRESS PERIOD   2
 UBDSV1 SAVING "FLOW RIGHT FACE " ON UNIT  53 AT TIME STEP 85, STRESS PERIOD   2
 UBDSV1 SAVING "FLOW FRONT FACE " ON UNIT  53 AT TIME STEP 85, STRESS PERIOD   2
1
              HEAD IN LAYER   1 AT END OF TIME STEP  85 IN STRESS PERIOD    2
  ---------------------------------------------------------------------------

            1           2           3           4           5           6           7           8           9          10
 ........................................................................................................................
   1    9.999       9.896       9.737       9.451       8.948       8.121       6.856       5.072       2.759      2.8084E-02
   2    9.999       9.896       9.737       9.451       8.948       8.121       6.856       5.072       2.759      2.8084E-02
   3    9.999       9.896       9.737       9.451       8.948       8.121       6.856       5.072       2.759      2.8084E-02
   4    9.999       9.896       9.737       9.451       8.948       8.121       6.856       5.072       2.759      2.8084E-02
   5    9.999       9.896       9.737       9.451       8.948       8.121       6.856       5.072       2.759      2.8084E-02
   6    9.999       9.896       9.737       9.451       8.948       8.121       6.856       5.072       2.759      2.8084E-02
   7    9.999       9.896       9.737       9.451       8.948       8.121       6.856       5.072       2.759      2.8084E-02
   8    9.999       9.896       9.737       9.451       8.948       8.121       6.856       5.072       2.759      2.8084E-02
   9    9.999       9.896       9.737       9.451       8.948       8.121       6.856       5.072       2.759      2.8084E-02
  10    9.999       9.896       9.737       9.451       8.948       8.121       6.856       5.072       2.759      2.8084E-02

 HEAD WILL BE SAVED ON UNIT   51 AT END OF TIME STEP   85, STRESS PERIOD    2

 DRAWDOWN WILL BE SAVED ON UNIT   52 AT END OF TIME STEP   85, STRESS PERIOD    2
1
  VOLUMETRIC BUDGET FOR ENTIRE MODEL AT END OF TIME STEP   85, STRESS PERIOD   2
  ------------------------------------------------------------------------------

     CUMULATIVE VOLUMES      L**3       RATES FOR THIS TIME STEP      L**3/T
     ------------------                 ------------------------

           IN:                                      IN:
           ---                                      ---
             STORAGE =      291323.7188               STORAGE =        1343.0199
       CONSTANT HEAD =           0.0000         CONSTANT HEAD =           0.0000
               WELLS =           0.0000                 WELLS =           0.0000
     HEAD DEP BOUNDS =        1244.1868       HEAD DEP BOUNDS =          61.1442

            TOTAL IN =      292567.9062              TOTAL IN =        1404.1642

          OUT:                                     OUT:
          ----                                     ----
             STORAGE =           0.0000               STORAGE =           0.0000
       CONSTANT HEAD =           0.0000         CONSTANT HEAD =           0.0000
               WELLS =           0.0000                 WELLS =           0.0000
     HEAD DEP BOUNDS =      292567.8125       HEAD DEP BOUNDS =        1404.1857

           TOTAL OUT =      292567.8125             TOTAL OUT =        1404.1857

            IN - OUT =       9.3750E-02              IN - OUT =      -2.1484E-02

 PERCENT DISCREPANCY =           0.00     PERCENT DISCREPANCY =          -0.00






         TIME SUMMARY AT END OF TIME STEP   85 IN STRESS PERIOD    2
                    SECONDS     MINUTES      HOURS       DAYS        YEARS
                    -----------------------------------------------------------
   TIME STEP LENGTH  86400.      1440.0      24.000     1.00000     2.73785E-03
 STRESS PERIOD TIME 7.34400E+06 1.22400E+05  2040.0      85.000     0.23272    
         TOTAL TIME 7.43040E+06 1.23840E+05  2064.0      86.000     0.23546    
1
 
 SOLVING FOR HEAD 

 OUTPUT CONTROL FOR STRESS PERIOD    2   TIME STEP   86
    SAVE HEAD FOR ALL LAYERS
    SAVE DRAWDOWN FOR ALL LAYERS
    SAVE BUDGET
    PRINT HEAD FOR ALL LAYERS
    PRINT BUDGET
 UBDSV1 SAVING "         STORAGE" ON UNIT  53 AT TIME STEP 86, STRESS PERIOD   2
 UBDSV2 SAVING "   CONSTANT HEAD" ON UNIT  53 AT TIME STEP 86, STRESS PERIOD   2
 UBDSV1 SAVING "FLOW RIGHT FACE " ON UNIT  53 AT TIME STEP 86, STRESS PERIOD   2
 UBDSV1 SAVING "FLOW FRONT FACE " ON UNIT  53 AT TIME STEP 86, STRESS PERIOD   2
1
              HEAD IN LAYER   1 AT END OF TIME STEP  86 IN STRESS PERIOD    2
  ---------------------------------------------------------------------------

            1           2           3           4           5           6           7           8           9          10
 ........................................................................................................................
   1    9.999       9.893       9.729       9.438       8.930       8.097       6.829       5.048       2.744      2.7923E-02
   2    9.999       9.893       9.729       9.438       8.930       8.097       6.829       5.048       2.744      2.7923E-02
   3    9.999       9.893       9.729       9.438       8.930       8.097       6.829       5.048       2.744      2.7923E-02
   4    9.999       9.893       9.729       9.438       8.930       8.097       6.829       5.048       2.744      2.7923E-02
   5    9.999       9.893       9.729       9.438       8.930       8.097       6.829       5.048       2.744      2.7923E-02
   6    9.999       9.893       9.729       9.438       8.930       8.097       6.829       5.048       2.744      2.7923E-02
   7    9.999       9.893       9.729       9.438       8.930       8.097       6.829       5.048       2.744      2.7923E-02
   8    9.999       9.893       9.729       9.438       8.930       8.097       6.829       5.048       2.744      2.7923E-02
   9    9.999       9.893       9.729       9.438       8.930       8.097       6.829       5.048       2.744      2.7923E-02
  10    9.999       9.893       9.729       9.438       8.930       8.097       6.829       5.048       2.744      2.7923E-02

 HEAD WILL BE SAVED ON UNIT   51 AT END OF TIME STEP   86, STRESS PERIOD    2

 DRAWDOWN WILL BE SAVED ON UNIT   52 AT END OF TIME STEP   86, STRESS PERIOD    2
1
  VOLUMETRIC BUDGET FOR ENTIRE MODEL AT END OF TIME STEP   86, STRESS PERIOD   2
  ------------------------------------------------------------------------------

     CUMULATIVE VOLUMES      L**3       RATES FOR THIS TIME STEP      L**3/T
     ------------------                 ------------------------

           IN:                                      IN:
           ---                                      ---
             STORAGE =      292656.6875               STORAGE =        1332.9719
       CONSTANT HEAD =           0.0000         CONSTANT HEAD =           0.0000
               WELLS =           0.0000                 WELLS =           0.0000
     HEAD DEP BOUNDS =        1307.3488       HEAD DEP BOUNDS =          63.1620

            TOTAL IN =      293964.0312              TOTAL IN =        1396.1339

          OUT:                                     OUT:
          ----                                     ----
             STORAGE =           0.0000               STORAGE =           0.0000
       CONSTANT HEAD =           0.0000         CONSTANT HEAD =           0.0000
               WELLS =           0.0000                 WELLS =           0.0000
     HEAD DEP BOUNDS =      293963.9688       HEAD DEP BOUNDS =        1396.1644

           TOTAL OUT =      293963.9688             TOTAL OUT =        1396.1644

            IN - OUT =       6.2500E-02              IN - OUT =      -3.0518E-02

 PERCENT DISCREPANCY =           0.00     PERCENT DISCREPANCY =          -0.00






         TIME SUMMARY AT END OF TIME STEP   86 IN STRESS PERIOD    2
                    SECONDS     MINUTES      HOURS       DAYS        YEARS
                    -----------------------------------------------------------
   TIME STEP LENGTH  86400.      1440.0      24.000     1.00000     2.73785E-03
 STRESS PERIOD TIME 7.43040E+06 1.23840E+05  2064.0      86.000     0.23546    
         TOTAL TIME 7.51680E+06 1.25280E+05  2088.0      87.000     0.23819    
1
 
 SOLVING FOR HEAD 

 OUTPUT CONTROL FOR STRESS PERIOD    2   TIME STEP   87
    SAVE HEAD FOR ALL LAYERS
    SAVE DRAWDOWN FOR ALL LAYERS
    SAVE BUDGET
    PRINT HEAD FOR ALL LAYERS
    PRINT BUDGET
 UBDSV1 SAVING "         STORAGE" ON UNIT  53 AT TIME STEP 87, STRESS PERIOD   2
 UBDSV2 SAVING "   CONSTANT HEAD" ON UNIT  53 AT TIME STEP 87, STRESS PERIOD   2
 UBDSV1 SAVING "FLOW RIGHT FACE " ON UNIT  53 AT TIME STEP 87, STRESS PERIOD   2
 UBDSV1 SAVING "FLOW FRONT FACE " ON UNIT  53 AT TIME STEP 87, STRESS PERIOD   2
1
              HEAD IN LAYER   1 AT END OF TIME STEP  87 IN STRESS PERIOD    2
  ---------------------------------------------------------------------------

            1           2           3           4           5           6           7           8           9          10
 ........................................................................................................................
   1    9.999       9.889       9.722       9.425       8.911       8.073       6.803       5.024       2.729      2.7766E-02
   2    9.999       9.889       9.722       9.425       8.911       8.073       6.803       5.024       2.729      2.7766E-02
   3    9.999       9.889       9.722       9.425       8.911       8.073       6.803       5.024       2.729      2.7766E-02
   4    9.999       9.889       9.722       9.425       8.911       8.073       6.803       5.024       2.729      2.7766E-02
   5    9.999       9.889       9.722       9.425       8.911       8.073       6.803       5.024       2.729      2.7766E-02
   6    9.999       9.889       9.722       9.425       8.911       8.073       6.803       5.024       2.729      2.7766E-02
   7    9.999       9.889       9.722       9.425       8.911       8.073       6.803       5.024       2.729      2.7766E-02
   8    9.999       9.889       9.722       9.425       8.911       8.073       6.803       5.024       2.729      2.7766E-02
   9    9.999       9.889       9.722       9.425       8.911       8.073       6.803       5.024       2.729      2.7766E-02
  10    9.999       9.889       9.722       9.425       8.911       8.073       6.803       5.024       2.729      2.7766E-02

 HEAD WILL BE SAVED ON UNIT   51 AT END OF TIME STEP   87, STRESS PERIOD    2

 DRAWDOWN WILL BE SAVED ON UNIT   52 AT END OF TIME STEP   87, STRESS PERIOD    2
1
  VOLUMETRIC BUDGET FOR ENTIRE MODEL AT END OF TIME STEP   87, STRESS PERIOD   2
  ------------------------------------------------------------------------------

     CUMULATIVE VOLUMES      L**3       RATES FOR THIS TIME STEP      L**3/T
     ------------------                 ------------------------

           IN:                                      IN:
           ---                                      ---
             STORAGE =      293979.6875               STORAGE =        1323.0121
       CONSTANT HEAD =           0.0000         CONSTANT HEAD =           0.0000
               WELLS =           0.0000                 WELLS =           0.0000
     HEAD DEP BOUNDS =        1372.6151       HEAD DEP BOUNDS =          65.2663

            TOTAL IN =      295352.3125              TOTAL IN =        1388.2784

          OUT:                                     OUT:
          ----                                     ----
             STORAGE =           0.0000               STORAGE =           0.0000
       CONSTANT HEAD =           0.0000         CONSTANT HEAD =           0.0000
               WELLS =           0.0000                 WELLS =           0.0000
     HEAD DEP BOUNDS =      295352.2500       HEAD DEP BOUNDS =        1388.2799

           TOTAL OUT =      295352.2500             TOTAL OUT =        1388.2799

            IN - OUT =       6.2500E-02              IN - OUT =      -1.4648E-03

 PERCENT DISCREPANCY =           0.00     PERCENT DISCREPANCY =          -0.00






         TIME SUMMARY AT END OF TIME STEP   87 IN STRESS PERIOD    2
                    SECONDS     MINUTES      HOURS       DAYS        YEARS
                    -----------------------------------------------------------
   TIME STEP LENGTH  86400.      1440.0      24.000     1.00000     2.73785E-03
 STRESS PERIOD TIME 7.51680E+06 1.25280E+05  2088.0      87.000     0.23819    
         TOTAL TIME 7.60320E+06 1.26720E+05  2112.0      88.000     0.24093    
1
 
 SOLVING FOR HEAD 

 OUTPUT CONTROL FOR STRESS PERIOD    2   TIME STEP   88
    SAVE HEAD FOR ALL LAYERS
    SAVE DRAWDOWN FOR ALL LAYERS
    SAVE BUDGET
    PRINT HEAD FOR ALL LAYERS
    PRINT BUDGET
 UBDSV1 SAVING "         STORAGE" ON UNIT  53 AT TIME STEP 88, STRESS PERIOD   2
 UBDSV2 SAVING "   CONSTANT HEAD" ON UNIT  53 AT TIME STEP 88, STRESS PERIOD   2
 UBDSV1 SAVING "FLOW RIGHT FACE " ON UNIT  53 AT TIME STEP 88, STRESS PERIOD   2
 UBDSV1 SAVING "FLOW FRONT FACE " ON UNIT  53 AT TIME STEP 88, STRESS PERIOD   2
1
              HEAD IN LAYER   1 AT END OF TIME STEP  88 IN STRESS PERIOD    2
  ---------------------------------------------------------------------------

            1           2           3           4           5           6           7           8           9          10
 ........................................................................................................................
   1    9.999       9.886       9.714       9.412       8.893       8.049       6.777       5.000       2.714      2.7610E-02
   2    9.999       9.886       9.714       9.412       8.893       8.049       6.777       5.000       2.714      2.7610E-02
   3    9.999       9.886       9.714       9.412       8.893       8.049       6.777       5.000       2.714      2.7610E-02
   4    9.999       9.886       9.714       9.412       8.893       8.049       6.777       5.000       2.714      2.7610E-02
   5    9.999       9.886       9.714       9.412       8.893       8.049       6.777       5.000       2.714      2.7610E-02
   6    9.999       9.886       9.714       9.412       8.893       8.049       6.777       5.000       2.714      2.7610E-02
   7    9.999       9.886       9.714       9.412       8.893       8.049       6.777       5.000       2.714      2.7610E-02
   8    9.999       9.886       9.714       9.412       8.893       8.049       6.777       5.000       2.714      2.7610E-02
   9    9.999       9.886       9.714       9.412       8.893       8.049       6.777       5.000       2.714      2.7610E-02
  10    9.999       9.886       9.714       9.412       8.893       8.049       6.777       5.000       2.714      2.7610E-02

 HEAD WILL BE SAVED ON UNIT   51 AT END OF TIME STEP   88, STRESS PERIOD    2

 DRAWDOWN WILL BE SAVED ON UNIT   52 AT END OF TIME STEP   88, STRESS PERIOD    2
1
  VOLUMETRIC BUDGET FOR ENTIRE MODEL AT END OF TIME STEP   88, STRESS PERIOD   2
  ------------------------------------------------------------------------------

     CUMULATIVE VOLUMES      L**3       RATES FOR THIS TIME STEP      L**3/T
     ------------------                 ------------------------

           IN:                                      IN:
           ---                                      ---
             STORAGE =      295292.8750               STORAGE =        1313.1759
       CONSTANT HEAD =           0.0000         CONSTANT HEAD =           0.0000
               WELLS =           0.0000                 WELLS =           0.0000
     HEAD DEP BOUNDS =        1439.9388       HEAD DEP BOUNDS =          67.3238

            TOTAL IN =      296732.8125              TOTAL IN =        1380.4996

          OUT:                                     OUT:
          ----                                     ----
             STORAGE =           0.0000               STORAGE =           0.0000
       CONSTANT HEAD =           0.0000         CONSTANT HEAD =           0.0000
               WELLS =           0.0000                 WELLS =           0.0000
     HEAD DEP BOUNDS =      296732.7812       HEAD DEP BOUNDS =        1380.5211

           TOTAL OUT =      296732.7812             TOTAL OUT =        1380.5211

            IN - OUT =       3.1250E-02              IN - OUT =      -2.1484E-02

 PERCENT DISCREPANCY =           0.00     PERCENT DISCREPANCY =          -0.00






         TIME SUMMARY AT END OF TIME STEP   88 IN STRESS PERIOD    2
                    SECONDS     MINUTES      HOURS       DAYS        YEARS
                    -----------------------------------------------------------
   TIME STEP LENGTH  86400.      1440.0      24.000     1.00000     2.73785E-03
 STRESS PERIOD TIME 7.60320E+06 1.26720E+05  2112.0      88.000     0.24093    
         TOTAL TIME 7.68960E+06 1.28160E+05  2136.0      89.000     0.24367    
1
 
 SOLVING FOR HEAD 

 OUTPUT CONTROL FOR STRESS PERIOD    2   TIME STEP   89
    SAVE HEAD FOR ALL LAYERS
    SAVE DRAWDOWN FOR ALL LAYERS
    SAVE BUDGET
    PRINT HEAD FOR ALL LAYERS
    PRINT BUDGET
 UBDSV1 SAVING "         STORAGE" ON UNIT  53 AT TIME STEP 89, STRESS PERIOD   2
 UBDSV2 SAVING "   CONSTANT HEAD" ON UNIT  53 AT TIME STEP 89, STRESS PERIOD   2
 UBDSV1 SAVING "FLOW RIGHT FACE " ON UNIT  53 AT TIME STEP 89, STRESS PERIOD   2
 UBDSV1 SAVING "FLOW FRONT FACE " ON UNIT  53 AT TIME STEP 89, STRESS PERIOD   2
1
              HEAD IN LAYER   1 AT END OF TIME STEP  89 IN STRESS PERIOD    2
  ---------------------------------------------------------------------------

            1           2           3           4           5           6           7           8           9          10
 ........................................................................................................................
   1    9.999       9.882       9.706       9.400       8.874       8.026       6.751       4.976       2.699      2.7458E-02
   2    9.999       9.882       9.706       9.400       8.874       8.026       6.751       4.976       2.699      2.7458E-02
   3    9.999       9.882       9.706       9.400       8.874       8.026       6.751       4.976       2.699      2.7458E-02
   4    9.999       9.882       9.706       9.400       8.874       8.026       6.751       4.976       2.699      2.7458E-02
   5    9.999       9.882       9.706       9.400       8.874       8.026       6.751       4.976       2.699      2.7458E-02
   6    9.999       9.882       9.706       9.400       8.874       8.026       6.751       4.976       2.699      2.7458E-02
   7    9.999       9.882       9.706       9.400       8.874       8.026       6.751       4.976       2.699      2.7458E-02
   8    9.999       9.882       9.706       9.400       8.874       8.026       6.751       4.976       2.699      2.7458E-02
   9    9.999       9.882       9.706       9.400       8.874       8.026       6.751       4.976       2.699      2.7458E-02
  10    9.999       9.882       9.706       9.400       8.874       8.026       6.751       4.976       2.699      2.7458E-02

 HEAD WILL BE SAVED ON UNIT   51 AT END OF TIME STEP   89, STRESS PERIOD    2

 DRAWDOWN WILL BE SAVED ON UNIT   52 AT END OF TIME STEP   89, STRESS PERIOD    2
1
  VOLUMETRIC BUDGET FOR ENTIRE MODEL AT END OF TIME STEP   89, STRESS PERIOD   2
  ------------------------------------------------------------------------------

     CUMULATIVE VOLUMES      L**3       RATES FOR THIS TIME STEP      L**3/T
     ------------------                 ------------------------

           IN:                                      IN:
           ---                                      ---
             STORAGE =      296596.3125               STORAGE =        1303.4506
       CONSTANT HEAD =           0.0000         CONSTANT HEAD =           0.0000
               WELLS =           0.0000                 WELLS =           0.0000
     HEAD DEP BOUNDS =        1509.4047       HEAD DEP BOUNDS =          69.4659

            TOTAL IN =      298105.7188              TOTAL IN =        1372.9164

          OUT:                                     OUT:
          ----                                     ----
             STORAGE =           0.0000               STORAGE =           0.0000
       CONSTANT HEAD =           0.0000         CONSTANT HEAD =           0.0000
               WELLS =           0.0000                 WELLS =           0.0000
     HEAD DEP BOUNDS =      298105.6875       HEAD DEP BOUNDS =        1372.8928

           TOTAL OUT =      298105.6875             TOTAL OUT =        1372.8928

            IN - OUT =       3.1250E-02              IN - OUT =       2.3560E-02

 PERCENT DISCREPANCY =           0.00     PERCENT DISCREPANCY =           0.00






         TIME SUMMARY AT END OF TIME STEP   89 IN STRESS PERIOD    2
                    SECONDS     MINUTES      HOURS       DAYS        YEARS
                    -----------------------------------------------------------
   TIME STEP LENGTH  86400.      1440.0      24.000     1.00000     2.73785E-03
 STRESS PERIOD TIME 7.68960E+06 1.28160E+05  2136.0      89.000     0.24367    
         TOTAL TIME 7.77600E+06 1.29600E+05  2160.0      90.000     0.24641    
1
 
 SOLVING FOR HEAD 

 OUTPUT CONTROL FOR STRESS PERIOD    2   TIME STEP   90
    SAVE HEAD FOR ALL LAYERS
    SAVE DRAWDOWN FOR ALL LAYERS
    SAVE BUDGET
    PRINT HEAD FOR ALL LAYERS
    PRINT BUDGET
 UBDSV1 SAVING "         STORAGE" ON UNIT  53 AT TIME STEP 90, STRESS PERIOD   2
 UBDSV2 SAVING "   CONSTANT HEAD" ON UNIT  53 AT TIME STEP 90, STRESS PERIOD   2
 UBDSV1 SAVING "FLOW RIGHT FACE " ON UNIT  53 AT TIME STEP 90, STRESS PERIOD   2
 UBDSV1 SAVING "FLOW FRONT FACE " ON UNIT  53 AT TIME STEP 90, STRESS PERIOD   2
1
              HEAD IN LAYER   1 AT END OF TIME STEP  90 IN STRESS PERIOD    2
  ---------------------------------------------------------------------------

            1           2           3           4           5           6           7           8           9          10
 ........................................................................................................................
   1    9.999       9.879       9.698       9.387       8.856       8.002       6.725       4.953       2.685      2.7308E-02
   2    9.999       9.879       9.698       9.387       8.856       8.002       6.725       4.953       2.685      2.7308E-02
   3    9.999       9.879       9.698       9.387       8.856       8.002       6.725       4.953       2.685      2.7308E-02
   4    9.999       9.879       9.698       9.387       8.856       8.002       6.725       4.953       2.685      2.7308E-02
   5    9.999       9.879       9.698       9.387       8.856       8.002       6.725       4.953       2.685      2.7308E-02
   6    9.999       9.879       9.698       9.387       8.856       8.002       6.725       4.953       2.685      2.7308E-02
   7    9.999       9.879       9.698       9.387       8.856       8.002       6.725       4.953       2.685      2.7308E-02
   8    9.999       9.879       9.698       9.387       8.856       8.002       6.725       4.953       2.685      2.7308E-02
   9    9.999       9.879       9.698       9.387       8.856       8.002       6.725       4.953       2.685      2.7308E-02
  10    9.999       9.879       9.698       9.387       8.856       8.002       6.725       4.953       2.685      2.7308E-02

 HEAD WILL BE SAVED ON UNIT   51 AT END OF TIME STEP   90, STRESS PERIOD    2

 DRAWDOWN WILL BE SAVED ON UNIT   52 AT END OF TIME STEP   90, STRESS PERIOD    2
1
  VOLUMETRIC BUDGET FOR ENTIRE MODEL AT END OF TIME STEP   90, STRESS PERIOD   2
  ------------------------------------------------------------------------------

     CUMULATIVE VOLUMES      L**3       RATES FOR THIS TIME STEP      L**3/T
     ------------------                 ------------------------

           IN:                                      IN:
           ---                                      ---
             STORAGE =      297890.1250               STORAGE =        1293.8230
       CONSTANT HEAD =           0.0000         CONSTANT HEAD =           0.0000
               WELLS =           0.0000                 WELLS =           0.0000
     HEAD DEP BOUNDS =        1580.9647       HEAD DEP BOUNDS =          71.5601

            TOTAL IN =      299471.0938              TOTAL IN =        1365.3831

          OUT:                                     OUT:
          ----                                     ----
             STORAGE =           0.0000               STORAGE =           0.0000
       CONSTANT HEAD =           0.0000         CONSTANT HEAD =           0.0000
               WELLS =           0.0000                 WELLS =           0.0000
     HEAD DEP BOUNDS =      299471.0938       HEAD DEP BOUNDS =        1365.3922

           TOTAL OUT =      299471.0938             TOTAL OUT =        1365.3922

            IN - OUT =           0.0000              IN - OUT =      -9.1553E-03

 PERCENT DISCREPANCY =           0.00     PERCENT DISCREPANCY =          -0.00






         TIME SUMMARY AT END OF TIME STEP   90 IN STRESS PERIOD    2
                    SECONDS     MINUTES      HOURS       DAYS        YEARS
                    -----------------------------------------------------------
   TIME STEP LENGTH  86400.      1440.0      24.000     1.00000     2.73785E-03
 STRESS PERIOD TIME 7.77600E+06 1.29600E+05  2160.0      90.000     0.24641    
         TOTAL TIME 7.86240E+06 1.31040E+05  2184.0      91.000     0.24914    
1
 
 SOLVING FOR HEAD 

 OUTPUT CONTROL FOR STRESS PERIOD    2   TIME STEP   91
    SAVE HEAD FOR ALL LAYERS
    SAVE DRAWDOWN FOR ALL LAYERS
    SAVE BUDGET
    PRINT HEAD FOR ALL LAYERS
    PRINT BUDGET
 UBDSV1 SAVING "         STORAGE" ON UNIT  53 AT TIME STEP 91, STRESS PERIOD   2
 UBDSV2 SAVING "   CONSTANT HEAD" ON UNIT  53 AT TIME STEP 91, STRESS PERIOD   2
 UBDSV1 SAVING "FLOW RIGHT FACE " ON UNIT  53 AT TIME STEP 91, STRESS PERIOD   2
 UBDSV1 SAVING "FLOW FRONT FACE " ON UNIT  53 AT TIME STEP 91, STRESS PERIOD   2
1
              HEAD IN LAYER   1 AT END OF TIME STEP  91 IN STRESS PERIOD    2
  ---------------------------------------------------------------------------

            1           2           3           4           5           6           7           8           9          10
 ........................................................................................................................
   1    9.999       9.875       9.691       9.374       8.837       7.979       6.700       4.930       2.671      2.7160E-02
   2    9.999       9.875       9.691       9.374       8.837       7.979       6.700       4.930       2.671      2.7160E-02
   3    9.999       9.875       9.691       9.374       8.837       7.979       6.700       4.930       2.671      2.7160E-02
   4    9.999       9.875       9.691       9.374       8.837       7.979       6.700       4.930       2.671      2.7160E-02
   5    9.999       9.875       9.691       9.374       8.837       7.979       6.700       4.930       2.671      2.7160E-02
   6    9.999       9.875       9.691       9.374       8.837       7.979       6.700       4.930       2.671      2.7160E-02
   7    9.999       9.875       9.691       9.374       8.837       7.979       6.700       4.930       2.671      2.7160E-02
   8    9.999       9.875       9.691       9.374       8.837       7.979       6.700       4.930       2.671      2.7160E-02
   9    9.999       9.875       9.691       9.374       8.837       7.979       6.700       4.930       2.671      2.7160E-02
  10    9.999       9.875       9.691       9.374       8.837       7.979       6.700       4.930       2.671      2.7160E-02

 HEAD WILL BE SAVED ON UNIT   51 AT END OF TIME STEP   91, STRESS PERIOD    2

 DRAWDOWN WILL BE SAVED ON UNIT   52 AT END OF TIME STEP   91, STRESS PERIOD    2
1
  VOLUMETRIC BUDGET FOR ENTIRE MODEL AT END OF TIME STEP   91, STRESS PERIOD   2
  ------------------------------------------------------------------------------

     CUMULATIVE VOLUMES      L**3       RATES FOR THIS TIME STEP      L**3/T
     ------------------                 ------------------------

           IN:                                      IN:
           ---                                      ---
             STORAGE =      299174.4375               STORAGE =        1284.2994
       CONSTANT HEAD =           0.0000         CONSTANT HEAD =           0.0000
               WELLS =           0.0000                 WELLS =           0.0000
     HEAD DEP BOUNDS =        1654.7030       HEAD DEP BOUNDS =          73.7383

            TOTAL IN =      300829.1250              TOTAL IN =        1358.0377

          OUT:                                     OUT:
          ----                                     ----
             STORAGE =           0.0000               STORAGE =           0.0000
       CONSTANT HEAD =           0.0000         CONSTANT HEAD =           0.0000
               WELLS =           0.0000                 WELLS =           0.0000
     HEAD DEP BOUNDS =      300829.0938       HEAD DEP BOUNDS =        1358.0087

           TOTAL OUT =      300829.0938             TOTAL OUT =        1358.0087

            IN - OUT =       3.1250E-02              IN - OUT =       2.9053E-02

 PERCENT DISCREPANCY =           0.00     PERCENT DISCREPANCY =           0.00






         TIME SUMMARY AT END OF TIME STEP   91 IN STRESS PERIOD    2
                    SECONDS     MINUTES      HOURS       DAYS        YEARS
                    -----------------------------------------------------------
   TIME STEP LENGTH  86400.      1440.0      24.000     1.00000     2.73785E-03
 STRESS PERIOD TIME 7.86240E+06 1.31040E+05  2184.0      91.000     0.24914    
         TOTAL TIME 7.94880E+06 1.32480E+05  2208.0      92.000     0.25188    
1
 
 SOLVING FOR HEAD 

 OUTPUT CONTROL FOR STRESS PERIOD    2   TIME STEP   92
    SAVE HEAD FOR ALL LAYERS
    SAVE DRAWDOWN FOR ALL LAYERS
    SAVE BUDGET
    PRINT HEAD FOR ALL LAYERS
    PRINT BUDGET
 UBDSV1 SAVING "         STORAGE" ON UNIT  53 AT TIME STEP 92, STRESS PERIOD   2
 UBDSV2 SAVING "   CONSTANT HEAD" ON UNIT  53 AT TIME STEP 92, STRESS PERIOD   2
 UBDSV1 SAVING "FLOW RIGHT FACE " ON UNIT  53 AT TIME STEP 92, STRESS PERIOD   2
 UBDSV1 SAVING "FLOW FRONT FACE " ON UNIT  53 AT TIME STEP 92, STRESS PERIOD   2
1
              HEAD IN LAYER   1 AT END OF TIME STEP  92 IN STRESS PERIOD    2
  ---------------------------------------------------------------------------

            1           2           3           4           5           6           7           8           9          10
 ........................................................................................................................
   1    9.999       9.872       9.683       9.361       8.819       7.956       6.675       4.908       2.657      2.7015E-02
   2    9.999       9.872       9.683       9.361       8.819       7.956       6.675       4.908       2.657      2.7015E-02
   3    9.999       9.872       9.683       9.361       8.819       7.956       6.675       4.908       2.657      2.7015E-02
   4    9.999       9.872       9.683       9.361       8.819       7.956       6.675       4.908       2.657      2.7015E-02
   5    9.999       9.872       9.683       9.361       8.819       7.956       6.675       4.908       2.657      2.7015E-02
   6    9.999       9.872       9.683       9.361       8.819       7.956       6.675       4.908       2.657      2.7015E-02
   7    9.999       9.872       9.683       9.361       8.819       7.956       6.675       4.908       2.657      2.7015E-02
   8    9.999       9.872       9.683       9.361       8.819       7.956       6.675       4.908       2.657      2.7015E-02
   9    9.999       9.872       9.683       9.361       8.819       7.956       6.675       4.908       2.657      2.7015E-02
  10    9.999       9.872       9.683       9.361       8.819       7.956       6.675       4.908       2.657      2.7015E-02

 HEAD WILL BE SAVED ON UNIT   51 AT END OF TIME STEP   92, STRESS PERIOD    2

 DRAWDOWN WILL BE SAVED ON UNIT   52 AT END OF TIME STEP   92, STRESS PERIOD    2
1
  VOLUMETRIC BUDGET FOR ENTIRE MODEL AT END OF TIME STEP   92, STRESS PERIOD   2
  ------------------------------------------------------------------------------

     CUMULATIVE VOLUMES      L**3       RATES FOR THIS TIME STEP      L**3/T
     ------------------                 ------------------------

           IN:                                      IN:
           ---                                      ---
             STORAGE =      300449.2812               STORAGE =        1274.8531
       CONSTANT HEAD =           0.0000         CONSTANT HEAD =           0.0000
               WELLS =           0.0000                 WELLS =           0.0000
     HEAD DEP BOUNDS =        1730.5693       HEAD DEP BOUNDS =          75.8663

            TOTAL IN =      302179.8438              TOTAL IN =        1350.7195

          OUT:                                     OUT:
          ----                                     ----
             STORAGE =           0.0000               STORAGE =           0.0000
       CONSTANT HEAD =           0.0000         CONSTANT HEAD =           0.0000
               WELLS =           0.0000                 WELLS =           0.0000
     HEAD DEP BOUNDS =      302179.8438       HEAD DEP BOUNDS =        1350.7474

           TOTAL OUT =      302179.8438             TOTAL OUT =        1350.7474

            IN - OUT =           0.0000              IN - OUT =      -2.7954E-02

 PERCENT DISCREPANCY =           0.00     PERCENT DISCREPANCY =          -0.00






         TIME SUMMARY AT END OF TIME STEP   92 IN STRESS PERIOD    2
                    SECONDS     MINUTES      HOURS       DAYS        YEARS
                    -----------------------------------------------------------
   TIME STEP LENGTH  86400.      1440.0      24.000     1.00000     2.73785E-03
 STRESS PERIOD TIME 7.94880E+06 1.32480E+05  2208.0      92.000     0.25188    
         TOTAL TIME 8.03520E+06 1.33920E+05  2232.0      93.000     0.25462    
1
 
 SOLVING FOR HEAD 

 OUTPUT CONTROL FOR STRESS PERIOD    2   TIME STEP   93
    SAVE HEAD FOR ALL LAYERS
    SAVE DRAWDOWN FOR ALL LAYERS
    SAVE BUDGET
    PRINT HEAD FOR ALL LAYERS
    PRINT BUDGET
 UBDSV1 SAVING "         STORAGE" ON UNIT  53 AT TIME STEP 93, STRESS PERIOD   2
 UBDSV2 SAVING "   CONSTANT HEAD" ON UNIT  53 AT TIME STEP 93, STRESS PERIOD   2
 UBDSV1 SAVING "FLOW RIGHT FACE " ON UNIT  53 AT TIME STEP 93, STRESS PERIOD   2
 UBDSV1 SAVING "FLOW FRONT FACE " ON UNIT  53 AT TIME STEP 93, STRESS PERIOD   2
1
              HEAD IN LAYER   1 AT END OF TIME STEP  93 IN STRESS PERIOD    2
  ---------------------------------------------------------------------------

            1           2           3           4           5           6           7           8           9          10
 ........................................................................................................................
   1    9.999       9.868       9.675       9.348       8.801       7.933       6.650       4.886       2.643      2.6872E-02
   2    9.999       9.868       9.675       9.348       8.801       7.933       6.650       4.886       2.643      2.6872E-02
   3    9.999       9.868       9.675       9.348       8.801       7.933       6.650       4.886       2.643      2.6872E-02
   4    9.999       9.868       9.675       9.348       8.801       7.933       6.650       4.886       2.643      2.6872E-02
   5    9.999       9.868       9.675       9.348       8.801       7.933       6.650       4.886       2.643      2.6872E-02
   6    9.999       9.868       9.675       9.348       8.801       7.933       6.650       4.886       2.643      2.6872E-02
   7    9.999       9.868       9.675       9.348       8.801       7.933       6.650       4.886       2.643      2.6872E-02
   8    9.999       9.868       9.675       9.348       8.801       7.933       6.650       4.886       2.643      2.6872E-02
   9    9.999       9.868       9.675       9.348       8.801       7.933       6.650       4.886       2.643      2.6872E-02
  10    9.999       9.868       9.675       9.348       8.801       7.933       6.650       4.886       2.643      2.6872E-02

 HEAD WILL BE SAVED ON UNIT   51 AT END OF TIME STEP   93, STRESS PERIOD    2

 DRAWDOWN WILL BE SAVED ON UNIT   52 AT END OF TIME STEP   93, STRESS PERIOD    2
1
  VOLUMETRIC BUDGET FOR ENTIRE MODEL AT END OF TIME STEP   93, STRESS PERIOD   2
  ------------------------------------------------------------------------------

     CUMULATIVE VOLUMES      L**3       RATES FOR THIS TIME STEP      L**3/T
     ------------------                 ------------------------

           IN:                                      IN:
           ---                                      ---
             STORAGE =      301714.8125               STORAGE =        1265.5344
       CONSTANT HEAD =           0.0000         CONSTANT HEAD =           0.0000
               WELLS =           0.0000                 WELLS =           0.0000
     HEAD DEP BOUNDS =        1808.6467       HEAD DEP BOUNDS =          78.0774

            TOTAL IN =      303523.4688              TOTAL IN =        1343.6118

          OUT:                                     OUT:
          ----                                     ----
             STORAGE =           0.0000               STORAGE =           0.0000
       CONSTANT HEAD =           0.0000         CONSTANT HEAD =           0.0000
               WELLS =           0.0000                 WELLS =           0.0000
     HEAD DEP BOUNDS =      303523.4375       HEAD DEP BOUNDS =        1343.5978

           TOTAL OUT =      303523.4375             TOTAL OUT =        1343.5978

            IN - OUT =       3.1250E-02              IN - OUT =       1.4038E-02

 PERCENT DISCREPANCY =           0.00     PERCENT DISCREPANCY =           0.00






         TIME SUMMARY AT END OF TIME STEP   93 IN STRESS PERIOD    2
                    SECONDS     MINUTES      HOURS       DAYS        YEARS
                    -----------------------------------------------------------
   TIME STEP LENGTH  86400.      1440.0      24.000     1.00000     2.73785E-03
 STRESS PERIOD TIME 8.03520E+06 1.33920E+05  2232.0      93.000     0.25462    
         TOTAL TIME 8.12160E+06 1.35360E+05  2256.0      94.000     0.25736    
1
 
 SOLVING FOR HEAD 

 OUTPUT CONTROL FOR STRESS PERIOD    2   TIME STEP   94
    SAVE HEAD FOR ALL LAYERS
    SAVE DRAWDOWN FOR ALL LAYERS
    SAVE BUDGET
    PRINT HEAD FOR ALL LAYERS
    PRINT BUDGET
 UBDSV1 SAVING "         STORAGE" ON UNIT  53 AT TIME STEP 94, STRESS PERIOD   2
 UBDSV2 SAVING "   CONSTANT HEAD" ON UNIT  53 AT TIME STEP 94, STRESS PERIOD   2
 UBDSV1 SAVING "FLOW RIGHT FACE " ON UNIT  53 AT TIME STEP 94, STRESS PERIOD   2
 UBDSV1 SAVING "FLOW FRONT FACE " ON UNIT  53 AT TIME STEP 94, STRESS PERIOD   2
1
              HEAD IN LAYER   1 AT END OF TIME STEP  94 IN STRESS PERIOD    2
  ---------------------------------------------------------------------------

            1           2           3           4           5           6           7           8           9          10
 ........................................................................................................................
   1    9.999       9.864       9.667       9.335       8.782       7.910       6.625       4.864       2.630      2.6731E-02
   2    9.999       9.864       9.667       9.335       8.782       7.910       6.625       4.864       2.630      2.6731E-02
   3    9.999       9.864       9.667       9.335       8.782       7.910       6.625       4.864       2.630      2.6731E-02
   4    9.999       9.864       9.667       9.335       8.782       7.910       6.625       4.864       2.630      2.6731E-02
   5    9.999       9.864       9.667       9.335       8.782       7.910       6.625       4.864       2.630      2.6731E-02
   6    9.999       9.864       9.667       9.335       8.782       7.910       6.625       4.864       2.630      2.6731E-02
   7    9.999       9.864       9.667       9.335       8.782       7.910       6.625       4.864       2.630      2.6731E-02
   8    9.999       9.864       9.667       9.335       8.782       7.910       6.625       4.864       2.630      2.6731E-02
   9    9.999       9.864       9.667       9.335       8.782       7.910       6.625       4.864       2.630      2.6731E-02
  10    9.999       9.864       9.667       9.335       8.782       7.910       6.625       4.864       2.630      2.6731E-02

 HEAD WILL BE SAVED ON UNIT   51 AT END OF TIME STEP   94, STRESS PERIOD    2

 DRAWDOWN WILL BE SAVED ON UNIT   52 AT END OF TIME STEP   94, STRESS PERIOD    2
1
  VOLUMETRIC BUDGET FOR ENTIRE MODEL AT END OF TIME STEP   94, STRESS PERIOD   2
  ------------------------------------------------------------------------------

     CUMULATIVE VOLUMES      L**3       RATES FOR THIS TIME STEP      L**3/T
     ------------------                 ------------------------

           IN:                                      IN:
           ---                                      ---
             STORAGE =      302971.1250               STORAGE =        1256.2990
       CONSTANT HEAD =           0.0000         CONSTANT HEAD =           0.0000
               WELLS =           0.0000                 WELLS =           0.0000
     HEAD DEP BOUNDS =        1888.9507       HEAD DEP BOUNDS =          80.3040

            TOTAL IN =      304860.0625              TOTAL IN =        1336.6029

          OUT:                                     OUT:
          ----                                     ----
             STORAGE =           0.0000               STORAGE =           0.0000
       CONSTANT HEAD =           0.0000         CONSTANT HEAD =           0.0000
               WELLS =           0.0000                 WELLS =           0.0000
     HEAD DEP BOUNDS =      304860.0000       HEAD DEP BOUNDS =        1336.5658

           TOTAL OUT =      304860.0000             TOTAL OUT =        1336.5658

            IN - OUT =       6.2500E-02              IN - OUT =       3.7109E-02

 PERCENT DISCREPANCY =           0.00     PERCENT DISCREPANCY =           0.00






         TIME SUMMARY AT END OF TIME STEP   94 IN STRESS PERIOD    2
                    SECONDS     MINUTES      HOURS       DAYS        YEARS
                    -----------------------------------------------------------
   TIME STEP LENGTH  86400.      1440.0      24.000     1.00000     2.73785E-03
 STRESS PERIOD TIME 8.12160E+06 1.35360E+05  2256.0      94.000     0.25736    
         TOTAL TIME 8.20800E+06 1.36800E+05  2280.0      95.000     0.26010    
1
 
 SOLVING FOR HEAD 

 OUTPUT CONTROL FOR STRESS PERIOD    2   TIME STEP   95
    SAVE HEAD FOR ALL LAYERS
    SAVE DRAWDOWN FOR ALL LAYERS
    SAVE BUDGET
    PRINT HEAD FOR ALL LAYERS
    PRINT BUDGET
 UBDSV1 SAVING "         STORAGE" ON UNIT  53 AT TIME STEP 95, STRESS PERIOD   2
 UBDSV2 SAVING "   CONSTANT HEAD" ON UNIT  53 AT TIME STEP 95, STRESS PERIOD   2
 UBDSV1 SAVING "FLOW RIGHT FACE " ON UNIT  53 AT TIME STEP 95, STRESS PERIOD   2
 UBDSV1 SAVING "FLOW FRONT FACE " ON UNIT  53 AT TIME STEP 95, STRESS PERIOD   2
1
              HEAD IN LAYER   1 AT END OF TIME STEP  95 IN STRESS PERIOD    2
  ---------------------------------------------------------------------------

            1           2           3           4           5           6           7           8           9          10
 ........................................................................................................................
   1    9.999       9.860       9.659       9.322       8.764       7.888       6.601       4.842       2.616      2.6593E-02
   2    9.999       9.860       9.659       9.322       8.764       7.888       6.601       4.842       2.616      2.6593E-02
   3    9.999       9.860       9.659       9.322       8.764       7.888       6.601       4.842       2.616      2.6593E-02
   4    9.999       9.860       9.659       9.322       8.764       7.888       6.601       4.842       2.616      2.6593E-02
   5    9.999       9.860       9.659       9.322       8.764       7.888       6.601       4.842       2.616      2.6593E-02
   6    9.999       9.860       9.659       9.322       8.764       7.888       6.601       4.842       2.616      2.6593E-02
   7    9.999       9.860       9.659       9.322       8.764       7.888       6.601       4.842       2.616      2.6593E-02
   8    9.999       9.860       9.659       9.322       8.764       7.888       6.601       4.842       2.616      2.6593E-02
   9    9.999       9.860       9.659       9.322       8.764       7.888       6.601       4.842       2.616      2.6593E-02
  10    9.999       9.860       9.659       9.322       8.764       7.888       6.601       4.842       2.616      2.6593E-02

 HEAD WILL BE SAVED ON UNIT   51 AT END OF TIME STEP   95, STRESS PERIOD    2

 DRAWDOWN WILL BE SAVED ON UNIT   52 AT END OF TIME STEP   95, STRESS PERIOD    2
1
  VOLUMETRIC BUDGET FOR ENTIRE MODEL AT END OF TIME STEP   95, STRESS PERIOD   2
  ------------------------------------------------------------------------------

     CUMULATIVE VOLUMES      L**3       RATES FOR THIS TIME STEP      L**3/T
     ------------------                 ------------------------

           IN:                                      IN:
           ---                                      ---
             STORAGE =      304218.2500               STORAGE =        1247.1290
       CONSTANT HEAD =           0.0000         CONSTANT HEAD =           0.0000
               WELLS =           0.0000                 WELLS =           0.0000
     HEAD DEP BOUNDS =        1971.4296       HEAD DEP BOUNDS =          82.4789

            TOTAL IN =      306189.6875              TOTAL IN =        1329.6079

          OUT:                                     OUT:
          ----                                     ----
             STORAGE =           0.0000               STORAGE =           0.0000
       CONSTANT HEAD =           0.0000         CONSTANT HEAD =           0.0000
               WELLS =           0.0000                 WELLS =           0.0000
     HEAD DEP BOUNDS =      306189.6250       HEAD DEP BOUNDS =        1329.6403

           TOTAL OUT =      306189.6250             TOTAL OUT =        1329.6403

            IN - OUT =       6.2500E-02              IN - OUT =      -3.2349E-02

 PERCENT DISCREPANCY =           0.00     PERCENT DISCREPANCY =          -0.00






         TIME SUMMARY AT END OF TIME STEP   95 IN STRESS PERIOD    2
                    SECONDS     MINUTES      HOURS       DAYS        YEARS
                    -----------------------------------------------------------
   TIME STEP LENGTH  86400.      1440.0      24.000     1.00000     2.73785E-03
 STRESS PERIOD TIME 8.20800E+06 1.36800E+05  2280.0      95.000     0.26010    
         TOTAL TIME 8.29440E+06 1.38240E+05  2304.0      96.000     0.26283    
1
 
 SOLVING FOR HEAD 

 OUTPUT CONTROL FOR STRESS PERIOD    2   TIME STEP   96
    SAVE HEAD FOR ALL LAYERS
    SAVE DRAWDOWN FOR ALL LAYERS
    SAVE BUDGET
    PRINT HEAD FOR ALL LAYERS
    PRINT BUDGET
 UBDSV1 SAVING "         STORAGE" ON UNIT  53 AT TIME STEP 96, STRESS PERIOD   2
 UBDSV2 SAVING "   CONSTANT HEAD" ON UNIT  53 AT TIME STEP 96, STRESS PERIOD   2
 UBDSV1 SAVING "FLOW RIGHT FACE " ON UNIT  53 AT TIME STEP 96, STRESS PERIOD   2
 UBDSV1 SAVING "FLOW FRONT FACE " ON UNIT  53 AT TIME STEP 96, STRESS PERIOD   2
1
              HEAD IN LAYER   1 AT END OF TIME STEP  96 IN STRESS PERIOD    2
  ---------------------------------------------------------------------------

            1           2           3           4           5           6           7           8           9          10
 ........................................................................................................................
   1    9.999       9.857       9.651       9.309       8.746       7.865       6.577       4.821       2.603      2.6456E-02
   2    9.999       9.857       9.651       9.309       8.746       7.865       6.577       4.821       2.603      2.6456E-02
   3    9.999       9.857       9.651       9.309       8.746       7.865       6.577       4.821       2.603      2.6456E-02
   4    9.999       9.857       9.651       9.309       8.746       7.865       6.577       4.821       2.603      2.6456E-02
   5    9.999       9.857       9.651       9.309       8.746       7.865       6.577       4.821       2.603      2.6456E-02
   6    9.999       9.857       9.651       9.309       8.746       7.865       6.577       4.821       2.603      2.6456E-02
   7    9.999       9.857       9.651       9.309       8.746       7.865       6.577       4.821       2.603      2.6456E-02
   8    9.999       9.857       9.651       9.309       8.746       7.865       6.577       4.821       2.603      2.6456E-02
   9    9.999       9.857       9.651       9.309       8.746       7.865       6.577       4.821       2.603      2.6456E-02
  10    9.999       9.857       9.651       9.309       8.746       7.865       6.577       4.821       2.603      2.6456E-02

 HEAD WILL BE SAVED ON UNIT   51 AT END OF TIME STEP   96, STRESS PERIOD    2

 DRAWDOWN WILL BE SAVED ON UNIT   52 AT END OF TIME STEP   96, STRESS PERIOD    2
1
  VOLUMETRIC BUDGET FOR ENTIRE MODEL AT END OF TIME STEP   96, STRESS PERIOD   2
  ------------------------------------------------------------------------------

     CUMULATIVE VOLUMES      L**3       RATES FOR THIS TIME STEP      L**3/T
     ------------------                 ------------------------

           IN:                                      IN:
           ---                                      ---
             STORAGE =      305456.3438               STORAGE =        1238.1040
       CONSTANT HEAD =           0.0000         CONSTANT HEAD =           0.0000
               WELLS =           0.0000                 WELLS =           0.0000
     HEAD DEP BOUNDS =        2056.1641       HEAD DEP BOUNDS =          84.7344

            TOTAL IN =      307512.5000              TOTAL IN =        1322.8384

          OUT:                                     OUT:
          ----                                     ----
             STORAGE =           0.0000               STORAGE =           0.0000
       CONSTANT HEAD =           0.0000         CONSTANT HEAD =           0.0000
               WELLS =           0.0000                 WELLS =           0.0000
     HEAD DEP BOUNDS =      307512.4375       HEAD DEP BOUNDS =        1322.8193

           TOTAL OUT =      307512.4375             TOTAL OUT =        1322.8193

            IN - OUT =       6.2500E-02              IN - OUT =       1.9043E-02

 PERCENT DISCREPANCY =           0.00     PERCENT DISCREPANCY =           0.00






         TIME SUMMARY AT END OF TIME STEP   96 IN STRESS PERIOD    2
                    SECONDS     MINUTES      HOURS       DAYS        YEARS
                    -----------------------------------------------------------
   TIME STEP LENGTH  86400.      1440.0      24.000     1.00000     2.73785E-03
 STRESS PERIOD TIME 8.29440E+06 1.38240E+05  2304.0      96.000     0.26283    
         TOTAL TIME 8.38080E+06 1.39680E+05  2328.0      97.000     0.26557    
1
 
 SOLVING FOR HEAD 

 OUTPUT CONTROL FOR STRESS PERIOD    2   TIME STEP   97
    SAVE HEAD FOR ALL LAYERS
    SAVE DRAWDOWN FOR ALL LAYERS
    SAVE BUDGET
    PRINT HEAD FOR ALL LAYERS
    PRINT BUDGET
 UBDSV1 SAVING "         STORAGE" ON UNIT  53 AT TIME STEP 97, STRESS PERIOD   2
 UBDSV2 SAVING "   CONSTANT HEAD" ON UNIT  53 AT TIME STEP 97, STRESS PERIOD   2
 UBDSV1 SAVING "FLOW RIGHT FACE " ON UNIT  53 AT TIME STEP 97, STRESS PERIOD   2
 UBDSV1 SAVING "FLOW FRONT FACE " ON UNIT  53 AT TIME STEP 97, STRESS PERIOD   2
1
              HEAD IN LAYER   1 AT END OF TIME STEP  97 IN STRESS PERIOD    2
  ---------------------------------------------------------------------------

            1           2           3           4           5           6           7           8           9          10
 ........................................................................................................................
   1    9.999       9.853       9.643       9.296       8.728       7.843       6.553       4.800       2.590      2.6322E-02
   2    9.999       9.853       9.643       9.296       8.728       7.843       6.553       4.800       2.590      2.6322E-02
   3    9.999       9.853       9.643       9.296       8.728       7.843       6.553       4.800       2.590      2.6322E-02
   4    9.999       9.853       9.643       9.296       8.728       7.843       6.553       4.800       2.590      2.6322E-02
   5    9.999       9.853       9.643       9.296       8.728       7.843       6.553       4.800       2.590      2.6322E-02
   6    9.999       9.853       9.643       9.296       8.728       7.843       6.553       4.800       2.590      2.6322E-02
   7    9.999       9.853       9.643       9.296       8.728       7.843       6.553       4.800       2.590      2.6322E-02
   8    9.999       9.853       9.643       9.296       8.728       7.843       6.553       4.800       2.590      2.6322E-02
   9    9.999       9.853       9.643       9.296       8.728       7.843       6.553       4.800       2.590      2.6322E-02
  10    9.999       9.853       9.643       9.296       8.728       7.843       6.553       4.800       2.590      2.6322E-02

 HEAD WILL BE SAVED ON UNIT   51 AT END OF TIME STEP   97, STRESS PERIOD    2

 DRAWDOWN WILL BE SAVED ON UNIT   52 AT END OF TIME STEP   97, STRESS PERIOD    2
1
  VOLUMETRIC BUDGET FOR ENTIRE MODEL AT END OF TIME STEP   97, STRESS PERIOD   2
  ------------------------------------------------------------------------------

     CUMULATIVE VOLUMES      L**3       RATES FOR THIS TIME STEP      L**3/T
     ------------------                 ------------------------

           IN:                                      IN:
           ---                                      ---
             STORAGE =      306685.4688               STORAGE =        1229.1250
       CONSTANT HEAD =           0.0000         CONSTANT HEAD =           0.0000
               WELLS =           0.0000                 WELLS =           0.0000
     HEAD DEP BOUNDS =        2143.1675       HEAD DEP BOUNDS =          87.0035

            TOTAL IN =      308828.6250              TOTAL IN =        1316.1285

          OUT:                                     OUT:
          ----                                     ----
             STORAGE =           0.0000               STORAGE =           0.0000
       CONSTANT HEAD =           0.0000         CONSTANT HEAD =           0.0000
               WELLS =           0.0000                 WELLS =           0.0000
     HEAD DEP BOUNDS =      308828.5312       HEAD DEP BOUNDS =        1316.1088

           TOTAL OUT =      308828.5312             TOTAL OUT =        1316.1088

            IN - OUT =       9.3750E-02              IN - OUT =       1.9775E-02

 PERCENT DISCREPANCY =           0.00     PERCENT DISCREPANCY =           0.00






         TIME SUMMARY AT END OF TIME STEP   97 IN STRESS PERIOD    2
                    SECONDS     MINUTES      HOURS       DAYS        YEARS
                    -----------------------------------------------------------
   TIME STEP LENGTH  86400.      1440.0      24.000     1.00000     2.73785E-03
 STRESS PERIOD TIME 8.38080E+06 1.39680E+05  2328.0      97.000     0.26557    
         TOTAL TIME 8.46720E+06 1.41120E+05  2352.0      98.000     0.26831    
1
 
 SOLVING FOR HEAD 

 OUTPUT CONTROL FOR STRESS PERIOD    2   TIME STEP   98
    SAVE HEAD FOR ALL LAYERS
    SAVE DRAWDOWN FOR ALL LAYERS
    SAVE BUDGET
    PRINT HEAD FOR ALL LAYERS
    PRINT BUDGET
 UBDSV1 SAVING "         STORAGE" ON UNIT  53 AT TIME STEP 98, STRESS PERIOD   2
 UBDSV2 SAVING "   CONSTANT HEAD" ON UNIT  53 AT TIME STEP 98, STRESS PERIOD   2
 UBDSV1 SAVING "FLOW RIGHT FACE " ON UNIT  53 AT TIME STEP 98, STRESS PERIOD   2
 UBDSV1 SAVING "FLOW FRONT FACE " ON UNIT  53 AT TIME STEP 98, STRESS PERIOD   2
1
              HEAD IN LAYER   1 AT END OF TIME STEP  98 IN STRESS PERIOD    2
  ---------------------------------------------------------------------------

            1           2           3           4           5           6           7           8           9          10
 ........................................................................................................................
   1    9.999       9.849       9.635       9.283       8.710       7.821       6.529       4.779       2.578      2.6190E-02
   2    9.999       9.849       9.635       9.283       8.710       7.821       6.529       4.779       2.578      2.6190E-02
   3    9.999       9.849       9.635       9.283       8.710       7.821       6.529       4.779       2.578      2.6190E-02
   4    9.999       9.849       9.635       9.283       8.710       7.821       6.529       4.779       2.578      2.6190E-02
   5    9.999       9.849       9.635       9.283       8.710       7.821       6.529       4.779       2.578      2.6190E-02
   6    9.999       9.849       9.635       9.283       8.710       7.821       6.529       4.779       2.578      2.6190E-02
   7    9.999       9.849       9.635       9.283       8.710       7.821       6.529       4.779       2.578      2.6190E-02
   8    9.999       9.849       9.635       9.283       8.710       7.821       6.529       4.779       2.578      2.6190E-02
   9    9.999       9.849       9.635       9.283       8.710       7.821       6.529       4.779       2.578      2.6190E-02
  10    9.999       9.849       9.635       9.283       8.710       7.821       6.529       4.779       2.578      2.6190E-02

 HEAD WILL BE SAVED ON UNIT   51 AT END OF TIME STEP   98, STRESS PERIOD    2

 DRAWDOWN WILL BE SAVED ON UNIT   52 AT END OF TIME STEP   98, STRESS PERIOD    2
1
  VOLUMETRIC BUDGET FOR ENTIRE MODEL AT END OF TIME STEP   98, STRESS PERIOD   2
  ------------------------------------------------------------------------------

     CUMULATIVE VOLUMES      L**3       RATES FOR THIS TIME STEP      L**3/T
     ------------------                 ------------------------

           IN:                                      IN:
           ---                                      ---
             STORAGE =      307905.7188               STORAGE =        1220.2415
       CONSTANT HEAD =           0.0000         CONSTANT HEAD =           0.0000
               WELLS =           0.0000                 WELLS =           0.0000
     HEAD DEP BOUNDS =        2232.4529       HEAD DEP BOUNDS =          89.2854

            TOTAL IN =      310138.1562              TOTAL IN =        1309.5269

          OUT:                                     OUT:
          ----                                     ----
             STORAGE =           0.0000               STORAGE =           0.0000
       CONSTANT HEAD =           0.0000         CONSTANT HEAD =           0.0000
               WELLS =           0.0000                 WELLS =           0.0000
     HEAD DEP BOUNDS =      310138.0312       HEAD DEP BOUNDS =        1309.4904

           TOTAL OUT =      310138.0312             TOTAL OUT =        1309.4904

            IN - OUT =           0.1250              IN - OUT =       3.6499E-02

 PERCENT DISCREPANCY =           0.00     PERCENT DISCREPANCY =           0.00






         TIME SUMMARY AT END OF TIME STEP   98 IN STRESS PERIOD    2
                    SECONDS     MINUTES      HOURS       DAYS        YEARS
                    -----------------------------------------------------------
   TIME STEP LENGTH  86400.      1440.0      24.000     1.00000     2.73785E-03
 STRESS PERIOD TIME 8.46720E+06 1.41120E+05  2352.0      98.000     0.26831    
         TOTAL TIME 8.55360E+06 1.42560E+05  2376.0      99.000     0.27105    
1
 
 SOLVING FOR HEAD 

 OUTPUT CONTROL FOR STRESS PERIOD    2   TIME STEP   99
    SAVE HEAD FOR ALL LAYERS
    SAVE DRAWDOWN FOR ALL LAYERS
    SAVE BUDGET
    PRINT HEAD FOR ALL LAYERS
    PRINT BUDGET
 UBDSV1 SAVING "         STORAGE" ON UNIT  53 AT TIME STEP 99, STRESS PERIOD   2
 UBDSV2 SAVING "   CONSTANT HEAD" ON UNIT  53 AT TIME STEP 99, STRESS PERIOD   2
 UBDSV1 SAVING "FLOW RIGHT FACE " ON UNIT  53 AT TIME STEP 99, STRESS PERIOD   2
 UBDSV1 SAVING "FLOW FRONT FACE " ON UNIT  53 AT TIME STEP 99, STRESS PERIOD   2
1
              HEAD IN LAYER   1 AT END OF TIME STEP  99 IN STRESS PERIOD    2
  ---------------------------------------------------------------------------

            1           2           3           4           5           6           7           8           9          10
 ........................................................................................................................
   1    9.998       9.845       9.627       9.271       8.692       7.799       6.506       4.759       2.565      2.6059E-02
   2    9.998       9.845       9.627       9.271       8.692       7.799       6.506       4.759       2.565      2.6059E-02
   3    9.998       9.845       9.627       9.271       8.692       7.799       6.506       4.759       2.565      2.6059E-02
   4    9.998       9.845       9.627       9.271       8.692       7.799       6.506       4.759       2.565      2.6059E-02
   5    9.998       9.845       9.627       9.271       8.692       7.799       6.506       4.759       2.565      2.6059E-02
   6    9.998       9.845       9.627       9.271       8.692       7.799       6.506       4.759       2.565      2.6059E-02
   7    9.998       9.845       9.627       9.271       8.692       7.799       6.506       4.759       2.565      2.6059E-02
   8    9.998       9.845       9.627       9.271       8.692       7.799       6.506       4.759       2.565      2.6059E-02
   9    9.998       9.845       9.627       9.271       8.692       7.799       6.506       4.759       2.565      2.6059E-02
  10    9.998       9.845       9.627       9.271       8.692       7.799       6.506       4.759       2.565      2.6059E-02

 HEAD WILL BE SAVED ON UNIT   51 AT END OF TIME STEP   99, STRESS PERIOD    2

 DRAWDOWN WILL BE SAVED ON UNIT   52 AT END OF TIME STEP   99, STRESS PERIOD    2
1
  VOLUMETRIC BUDGET FOR ENTIRE MODEL AT END OF TIME STEP   99, STRESS PERIOD   2
  ------------------------------------------------------------------------------

     CUMULATIVE VOLUMES      L**3       RATES FOR THIS TIME STEP      L**3/T
     ------------------                 ------------------------

           IN:                                      IN:
           ---                                      ---
             STORAGE =      309117.1562               STORAGE =        1211.4230
       CONSTANT HEAD =           0.0000         CONSTANT HEAD =           0.0000
               WELLS =           0.0000                 WELLS =           0.0000
     HEAD DEP BOUNDS =        2323.9663       HEAD DEP BOUNDS =          91.5134

            TOTAL IN =      311441.1250              TOTAL IN =        1302.9364

          OUT:                                     OUT:
          ----                                     ----
             STORAGE =           0.0000               STORAGE =           0.0000
       CONSTANT HEAD =           0.0000         CONSTANT HEAD =           0.0000
               WELLS =           0.0000                 WELLS =           0.0000
     HEAD DEP BOUNDS =      311441.0000       HEAD DEP BOUNDS =        1302.9698

           TOTAL OUT =      311441.0000             TOTAL OUT =        1302.9698

            IN - OUT =           0.1250              IN - OUT =      -3.3447E-02

 PERCENT DISCREPANCY =           0.00     PERCENT DISCREPANCY =          -0.00






         TIME SUMMARY AT END OF TIME STEP   99 IN STRESS PERIOD    2
                    SECONDS     MINUTES      HOURS       DAYS        YEARS
                    -----------------------------------------------------------
   TIME STEP LENGTH  86400.      1440.0      24.000     1.00000     2.73785E-03
 STRESS PERIOD TIME 8.55360E+06 1.42560E+05  2376.0      99.000     0.27105    
         TOTAL TIME 8.64000E+06 1.44000E+05  2400.0     100.000     0.27379    
1
 
 SOLVING FOR HEAD 

 OUTPUT CONTROL FOR STRESS PERIOD    2   TIME STEP  100
    SAVE HEAD FOR ALL LAYERS
    SAVE DRAWDOWN FOR ALL LAYERS
    SAVE BUDGET
    PRINT HEAD FOR ALL LAYERS
    PRINT BUDGET
 UBDSV1 SAVING "         STORAGE" ON UNIT  53 AT TIME STEP100, STRESS PERIOD   2
 UBDSV2 SAVING "   CONSTANT HEAD" ON UNIT  53 AT TIME STEP100, STRESS PERIOD   2
 UBDSV1 SAVING "FLOW RIGHT FACE " ON UNIT  53 AT TIME STEP100, STRESS PERIOD   2
 UBDSV1 SAVING "FLOW FRONT FACE " ON UNIT  53 AT TIME STEP100, STRESS PERIOD   2
1
              HEAD IN LAYER   1 AT END OF TIME STEP 100 IN STRESS PERIOD    2
  ---------------------------------------------------------------------------

            1           2           3           4           5           6           7           8           9          10
 ........................................................................................................................
   1    9.998       9.841       9.618       9.258       8.674       7.778       6.483       4.739       2.553      2.5931E-02
   2    9.998       9.841       9.618       9.258       8.674       7.778       6.483       4.739       2.553      2.5931E-02
   3    9.998       9.841       9.618       9.258       8.674       7.778       6.483       4.739       2.553      2.5931E-02
   4    9.998       9.841       9.618       9.258       8.674       7.778       6.483       4.739       2.553      2.5931E-02
   5    9.998       9.841       9.618       9.258       8.674       7.778       6.483       4.739       2.553      2.5931E-02
   6    9.998       9.841       9.618       9.258       8.674       7.778       6.483       4.739       2.553      2.5931E-02
   7    9.998       9.841       9.618       9.258       8.674       7.778       6.483       4.739       2.553      2.5931E-02
   8    9.998       9.841       9.618       9.258       8.674       7.778       6.483       4.739       2.553      2.5931E-02
   9    9.998       9.841       9.618       9.258       8.674       7.778       6.483       4.739       2.553      2.5931E-02
  10    9.998       9.841       9.618       9.258       8.674       7.778       6.483       4.739       2.553      2.5931E-02

 HEAD WILL BE SAVED ON UNIT   51 AT END OF TIME STEP  100, STRESS PERIOD    2

 DRAWDOWN WILL BE SAVED ON UNIT   52 AT END OF TIME STEP  100, STRESS PERIOD    2
1
  VOLUMETRIC BUDGET FOR ENTIRE MODEL AT END OF TIME STEP  100, STRESS PERIOD   2
  ------------------------------------------------------------------------------

     CUMULATIVE VOLUMES      L**3       RATES FOR THIS TIME STEP      L**3/T
     ------------------                 ------------------------

           IN:                                      IN:
           ---                                      ---
             STORAGE =      310319.8750               STORAGE =        1202.7079
       CONSTANT HEAD =           0.0000         CONSTANT HEAD =           0.0000
               WELLS =           0.0000                 WELLS =           0.0000
     HEAD DEP BOUNDS =        2417.7859       HEAD DEP BOUNDS =          93.8196

            TOTAL IN =      312737.6562              TOTAL IN =        1296.5275

          OUT:                                     OUT:
          ----                                     ----
             STORAGE =           0.0000               STORAGE =           0.0000
       CONSTANT HEAD =           0.0000         CONSTANT HEAD =           0.0000
               WELLS =           0.0000                 WELLS =           0.0000
     HEAD DEP BOUNDS =      312737.5625       HEAD DEP BOUNDS =        1296.5535

           TOTAL OUT =      312737.5625             TOTAL OUT =        1296.5535

            IN - OUT =       9.3750E-02              IN - OUT =      -2.6001E-02

 PERCENT DISCREPANCY =           0.00     PERCENT DISCREPANCY =          -0.00






         TIME SUMMARY AT END OF TIME STEP  100 IN STRESS PERIOD    2
                    SECONDS     MINUTES      HOURS       DAYS        YEARS
                    -----------------------------------------------------------
   TIME STEP LENGTH  86400.      1440.0      24.000     1.00000     2.73785E-03
 STRESS PERIOD TIME 8.64000E+06 1.44000E+05  2400.0     100.000     0.27379    
         TOTAL TIME 8.72640E+06 1.45440E+05  2424.0      101.00     0.27652    
1
1
                            STRESS PERIOD NO.    3, LENGTH =  100.00000    
                            -----------------------------------------------

                              NUMBER OF TIME STEPS =   100

                               MULTIPLIER FOR DELT =     1.000

                            INITIAL TIME STEP SIZE =  1.0000000    

 WELL NO.  LAYER   ROW   COL   STRESS RATE         
 --------------------------------------------------
      1      1      5      5      -500.0    

      1 WELL 

 REUSING NON-PARAMETER GHB CELLS FROM LAST STRESS PERIOD

     20 GHB CELLS
 
 SOLVING FOR HEAD 

 OUTPUT CONTROL FOR STRESS PERIOD    3   TIME STEP    1
    SAVE HEAD FOR ALL LAYERS
    SAVE DRAWDOWN FOR ALL LAYERS
    SAVE BUDGET
    PRINT HEAD FOR ALL LAYERS
    PRINT BUDGET
 UBDSV1 SAVING "         STORAGE" ON UNIT  53 AT TIME STEP  1, STRESS PERIOD   3
 UBDSV2 SAVING "   CONSTANT HEAD" ON UNIT  53 AT TIME STEP  1, STRESS PERIOD   3
 UBDSV1 SAVING "FLOW RIGHT FACE " ON UNIT  53 AT TIME STEP  1, STRESS PERIOD   3
 UBDSV1 SAVING "FLOW FRONT FACE " ON UNIT  53 AT TIME STEP  1, STRESS PERIOD   3
1
              HEAD IN LAYER   1 AT END OF TIME STEP   1 IN STRESS PERIOD    3
  ---------------------------------------------------------------------------

            1           2           3           4           5           6           7           8           9          10
 ........................................................................................................................
   1    9.998       9.837       9.610       9.245       8.657       7.756       6.460       4.719       2.541      2.5805E-02
   2    9.998       9.837       9.610       9.245       8.657       7.756       6.460       4.719       2.541      2.5805E-02
   3    9.998       9.837       9.610       9.244       8.656       7.756       6.460       4.719       2.541      2.5805E-02
   4    9.998       9.837       9.610       9.243       8.637       7.754       6.460       4.719       2.541      2.5805E-02
   5    9.998       9.837       9.609       9.225       8.248       7.736       6.459       4.719       2.541      2.5805E-02
   6    9.998       9.837       9.610       9.243       8.637       7.754       6.460       4.719       2.541      2.5805E-02
   7    9.998       9.837       9.610       9.244       8.656       7.756       6.460       4.719       2.541      2.5805E-02
   8    9.998       9.837       9.610       9.245       8.657       7.756       6.460       4.719       2.541      2.5805E-02
   9    9.998       9.837       9.610       9.245       8.657       7.756       6.460       4.719       2.541      2.5805E-02
  10    9.998       9.837       9.610       9.245       8.657       7.756       6.460       4.719       2.541      2.5805E-02

 HEAD WILL BE SAVED ON UNIT   51 AT END OF TIME STEP    1, STRESS PERIOD    3

 DRAWDOWN WILL BE SAVED ON UNIT   52 AT END OF TIME STEP    1, STRESS PERIOD    3
1
  VOLUMETRIC BUDGET FOR ENTIRE MODEL AT END OF TIME STEP    1, STRESS PERIOD   3
  ------------------------------------------------------------------------------

     CUMULATIVE VOLUMES      L**3       RATES FOR THIS TIME STEP      L**3/T
     ------------------                 ------------------------

           IN:                                      IN:
           ---                                      ---
             STORAGE =      312013.9375               STORAGE =        1694.0728
       CONSTANT HEAD =           0.0000         CONSTANT HEAD =           0.0000
               WELLS =           0.0000                 WELLS =           0.0000
     HEAD DEP BOUNDS =        2513.9263       HEAD DEP BOUNDS =          96.1404

            TOTAL IN =      314527.8750              TOTAL IN =        1790.2131

          OUT:                                     OUT:
          ----                                     ----
             STORAGE =           0.0000               STORAGE =           0.0000
       CONSTANT HEAD =           0.0000         CONSTANT HEAD =           0.0000
               WELLS =         500.0000                 WELLS =         500.0000
     HEAD DEP BOUNDS =      314027.7812       HEAD DEP BOUNDS =        1290.2312

           TOTAL OUT =      314527.7812             TOTAL OUT =        1790.2312

            IN - OUT =       9.3750E-02              IN - OUT =      -1.8066E-02

 PERCENT DISCREPANCY =           0.00     PERCENT DISCREPANCY =          -0.00






         TIME SUMMARY AT END OF TIME STEP    1 IN STRESS PERIOD    3
                    SECONDS     MINUTES      HOURS       DAYS        YEARS
                    -----------------------------------------------------------
   TIME STEP LENGTH  86400.      1440.0      24.000     1.00000     2.73785E-03
 STRESS PERIOD TIME  86400.      1440.0      24.000     1.00000     2.73785E-03
         TOTAL TIME 8.81280E+06 1.46880E+05  2448.0      102.00     0.27926    
1
 
 SOLVING FOR HEAD 

 OUTPUT CONTROL FOR STRESS PERIOD    3   TIME STEP    2
    SAVE HEAD FOR ALL LAYERS
    SAVE DRAWDOWN FOR ALL LAYERS
    SAVE BUDGET
    PRINT HEAD FOR ALL LAYERS
    PRINT BUDGET
 UBDSV1 SAVING "         STORAGE" ON UNIT  53 AT TIME STEP  2, STRESS PERIOD   3
 UBDSV2 SAVING "   CONSTANT HEAD" ON UNIT  53 AT TIME STEP  2, STRESS PERIOD   3
 UBDSV1 SAVING "FLOW RIGHT FACE " ON UNIT  53 AT TIME STEP  2, STRESS PERIOD   3
 UBDSV1 SAVING "FLOW FRONT FACE " ON UNIT  53 AT TIME STEP  2, STRESS PERIOD   3
1
              HEAD IN LAYER   1 AT END OF TIME STEP   2 IN STRESS PERIOD    3
  ---------------------------------------------------------------------------

            1           2           3           4           5           6           7           8           9          10
 ........................................................................................................................
   1    9.998       9.833       9.602       9.232       8.639       7.735       6.438       4.699       2.529      2.5680E-02
   2    9.998       9.833       9.602       9.232       8.639       7.735       6.438       4.699       2.529      2.5680E-02
   3    9.998       9.833       9.602       9.231       8.636       7.734       6.438       4.699       2.529      2.5680E-02
   4    9.998       9.833       9.601       9.225       8.587       7.728       6.437       4.699       2.529      2.5680E-02
   5    9.998       9.833       9.599       9.180       7.892       7.682       6.434       4.699       2.529      2.5680E-02
   6    9.998       9.833       9.601       9.225       8.587       7.728       6.437       4.699       2.529      2.5680E-02
   7    9.998       9.833       9.602       9.231       8.636       7.734       6.438       4.699       2.529      2.5680E-02
   8    9.998       9.833       9.602       9.232       8.639       7.735       6.438       4.699       2.529      2.5680E-02
   9    9.998       9.833       9.602       9.232       8.639       7.735       6.438       4.699       2.529      2.5680E-02
  10    9.998       9.833       9.602       9.232       8.639       7.735       6.438       4.699       2.529      2.5680E-02

 HEAD WILL BE SAVED ON UNIT   51 AT END OF TIME STEP    2, STRESS PERIOD    3

 DRAWDOWN WILL BE SAVED ON UNIT   52 AT END OF TIME STEP    2, STRESS PERIOD    3
1
  VOLUMETRIC BUDGET FOR ENTIRE MODEL AT END OF TIME STEP    2, STRESS PERIOD   3
  ------------------------------------------------------------------------------

     CUMULATIVE VOLUMES      L**3       RATES FOR THIS TIME STEP      L**3/T
     ------------------                 ------------------------

           IN:                                      IN:
           ---                                      ---
             STORAGE =      313699.4375               STORAGE =        1685.5077
       CONSTANT HEAD =           0.0000         CONSTANT HEAD =           0.0000
               WELLS =           0.0000                 WELLS =           0.0000
     HEAD DEP BOUNDS =        2612.4070       HEAD DEP BOUNDS =          98.4806

            TOTAL IN =      316311.8438              TOTAL IN =        1783.9883

          OUT:                                     OUT:
          ----                                     ----
             STORAGE =           0.0000               STORAGE =           0.0000
       CONSTANT HEAD =           0.0000         CONSTANT HEAD =           0.0000
               WELLS =        1000.0000                 WELLS =         500.0000
     HEAD DEP BOUNDS =      315311.7812       HEAD DEP BOUNDS =        1283.9927

           TOTAL OUT =      316311.7812             TOTAL OUT =        1783.9927

            IN - OUT =       6.2500E-02              IN - OUT =      -4.3945E-03

 PERCENT DISCREPANCY =           0.00     PERCENT DISCREPANCY =          -0.00






         TIME SUMMARY AT END OF TIME STEP    2 IN STRESS PERIOD    3
                    SECONDS     MINUTES      HOURS       DAYS        YEARS
                    -----------------------------------------------------------
   TIME STEP LENGTH  86400.      1440.0      24.000     1.00000     2.73785E-03
 STRESS PERIOD TIME 1.72800E+05  2880.0      48.000      2.0000     5.47570E-03
         TOTAL TIME 8.89920E+06 1.48320E+05  2472.0      103.00     0.28200    
1
 
 SOLVING FOR HEAD 

 OUTPUT CONTROL FOR STRESS PERIOD    3   TIME STEP    3
    SAVE HEAD FOR ALL LAYERS
    SAVE DRAWDOWN FOR ALL LAYERS
    SAVE BUDGET
    PRINT HEAD FOR ALL LAYERS
    PRINT BUDGET
 UBDSV1 SAVING "         STORAGE" ON UNIT  53 AT TIME STEP  3, STRESS PERIOD   3
 UBDSV2 SAVING "   CONSTANT HEAD" ON UNIT  53 AT TIME STEP  3, STRESS PERIOD   3
 UBDSV1 SAVING "FLOW RIGHT FACE " ON UNIT  53 AT TIME STEP  3, STRESS PERIOD   3
 UBDSV1 SAVING "FLOW FRONT FACE " ON UNIT  53 AT TIME STEP  3, STRESS PERIOD   3
1
              HEAD IN LAYER   1 AT END OF TIME STEP   3 IN STRESS PERIOD    3
  ---------------------------------------------------------------------------

            1           2           3           4           5           6           7           8           9          10
 ........................................................................................................................
   1    9.998       9.829       9.594       9.219       8.621       7.713       6.415       4.679       2.517      2.5557E-02
   2    9.998       9.829       9.594       9.219       8.621       7.713       6.415       4.679       2.517      2.5557E-02
   3    9.998       9.829       9.594       9.217       8.614       7.712       6.415       4.679       2.517      2.5557E-02
   4    9.998       9.829       9.592       9.205       8.529       7.699       6.414       4.679       2.517      2.5557E-02
   5    9.998       9.829       9.587       9.127       7.592       7.621       6.408       4.679       2.517      2.5557E-02
   6    9.998       9.829       9.592       9.205       8.529       7.699       6.414       4.679       2.517      2.5557E-02
   7    9.998       9.829       9.594       9.217       8.614       7.712       6.415       4.679       2.517      2.5557E-02
   8    9.998       9.829       9.594       9.219       8.621       7.713       6.415       4.679       2.517      2.5557E-02
   9    9.998       9.829       9.594       9.219       8.621       7.713       6.415       4.679       2.517      2.5557E-02
  10    9.998       9.829       9.594       9.219       8.621       7.713       6.415       4.679       2.517      2.5557E-02

 HEAD WILL BE SAVED ON UNIT   51 AT END OF TIME STEP    3, STRESS PERIOD    3

 DRAWDOWN WILL BE SAVED ON UNIT   52 AT END OF TIME STEP    3, STRESS PERIOD    3
1
  VOLUMETRIC BUDGET FOR ENTIRE MODEL AT END OF TIME STEP    3, STRESS PERIOD   3
  ------------------------------------------------------------------------------

     CUMULATIVE VOLUMES      L**3       RATES FOR THIS TIME STEP      L**3/T
     ------------------                 ------------------------

           IN:                                      IN:
           ---                                      ---
             STORAGE =      315376.4375               STORAGE =        1676.9958
       CONSTANT HEAD =           0.0000         CONSTANT HEAD =           0.0000
               WELLS =           0.0000                 WELLS =           0.0000
     HEAD DEP BOUNDS =        2713.2532       HEAD DEP BOUNDS =         100.8461

            TOTAL IN =      318089.6875              TOTAL IN =        1777.8419

          OUT:                                     OUT:
          ----                                     ----
             STORAGE =           0.0000               STORAGE =           0.0000
       CONSTANT HEAD =           0.0000         CONSTANT HEAD =           0.0000
               WELLS =        1500.0000                 WELLS =         500.0000
     HEAD DEP BOUNDS =      316589.6250       HEAD DEP BOUNDS =        1277.8436

           TOTAL OUT =      318089.6250             TOTAL OUT =        1777.8436

            IN - OUT =       6.2500E-02              IN - OUT =      -1.7090E-03

 PERCENT DISCREPANCY =           0.00     PERCENT DISCREPANCY =          -0.00






         TIME SUMMARY AT END OF TIME STEP    3 IN STRESS PERIOD    3
                    SECONDS     MINUTES      HOURS       DAYS        YEARS
                    -----------------------------------------------------------
   TIME STEP LENGTH  86400.      1440.0      24.000     1.00000     2.73785E-03
 STRESS PERIOD TIME 2.59200E+05  4320.0      72.000      3.0000     8.21355E-03
         TOTAL TIME 8.98560E+06 1.49760E+05  2496.0      104.00     0.28474    
1
 
 SOLVING FOR HEAD 

 OUTPUT CONTROL FOR STRESS PERIOD    3   TIME STEP    4
    SAVE HEAD FOR ALL LAYERS
    SAVE DRAWDOWN FOR ALL LAYERS
    SAVE BUDGET
    PRINT HEAD FOR ALL LAYERS
    PRINT BUDGET
 UBDSV1 SAVING "         STORAGE" ON UNIT  53 AT TIME STEP  4, STRESS PERIOD   3
 UBDSV2 SAVING "   CONSTANT HEAD" ON UNIT  53 AT TIME STEP  4, STRESS PERIOD   3
 UBDSV1 SAVING "FLOW RIGHT FACE " ON UNIT  53 AT TIME STEP  4, STRESS PERIOD   3
 UBDSV1 SAVING "FLOW FRONT FACE " ON UNIT  53 AT TIME STEP  4, STRESS PERIOD   3
1
              HEAD IN LAYER   1 AT END OF TIME STEP   4 IN STRESS PERIOD    3
  ---------------------------------------------------------------------------

            1           2           3           4           5           6           7           8           9          10
 ........................................................................................................................
   1    9.998       9.825       9.586       9.206       8.604       7.692       6.393       4.660       2.505      2.5436E-02
   2    9.998       9.825       9.586       9.206       8.603       7.692       6.393       4.660       2.505      2.5436E-02
   3    9.998       9.825       9.585       9.203       8.591       7.689       6.393       4.660       2.505      2.5436E-02
   4    9.998       9.825       9.583       9.181       8.467       7.667       6.390       4.660       2.505      2.5436E-02
   5    9.998       9.824       9.573       9.069       7.336       7.554       6.381       4.659       2.505      2.5435E-02
   6    9.998       9.825       9.583       9.181       8.467       7.667       6.390       4.660       2.505      2.5436E-02
   7    9.998       9.825       9.585       9.203       8.591       7.689       6.393       4.660       2.505      2.5436E-02
   8    9.998       9.825       9.586       9.206       8.603       7.692       6.393       4.660       2.505      2.5436E-02
   9    9.998       9.825       9.586       9.206       8.604       7.692       6.393       4.660       2.505      2.5436E-02
  10    9.998       9.825       9.586       9.206       8.604       7.692       6.393       4.660       2.505      2.5436E-02

 HEAD WILL BE SAVED ON UNIT   51 AT END OF TIME STEP    4, STRESS PERIOD    3

 DRAWDOWN WILL BE SAVED ON UNIT   52 AT END OF TIME STEP    4, STRESS PERIOD    3
1
  VOLUMETRIC BUDGET FOR ENTIRE MODEL AT END OF TIME STEP    4, STRESS PERIOD   3
  ------------------------------------------------------------------------------

     CUMULATIVE VOLUMES      L**3       RATES FOR THIS TIME STEP      L**3/T
     ------------------                 ------------------------

           IN:                                      IN:
           ---                                      ---
             STORAGE =      317044.9688               STORAGE =        1668.5264
       CONSTANT HEAD =           0.0000         CONSTANT HEAD =           0.0000
               WELLS =           0.0000                 WELLS =           0.0000
     HEAD DEP BOUNDS =        2816.5027       HEAD DEP BOUNDS =         103.2494

            TOTAL IN =      319861.4688              TOTAL IN =        1771.7758

          OUT:                                     OUT:
          ----                                     ----
             STORAGE =           0.0000               STORAGE =           0.0000
       CONSTANT HEAD =           0.0000         CONSTANT HEAD =           0.0000
               WELLS =        2000.0000                 WELLS =         500.0000
     HEAD DEP BOUNDS =      317861.4062       HEAD DEP BOUNDS =        1271.7815

           TOTAL OUT =      319861.4062             TOTAL OUT =        1771.7815

            IN - OUT =       6.2500E-02              IN - OUT =      -5.7373E-03

 PERCENT DISCREPANCY =           0.00     PERCENT DISCREPANCY =          -0.00






         TIME SUMMARY AT END OF TIME STEP    4 IN STRESS PERIOD    3
                    SECONDS     MINUTES      HOURS       DAYS        YEARS
                    -----------------------------------------------------------
   TIME STEP LENGTH  86400.      1440.0      24.000     1.00000     2.73785E-03
 STRESS PERIOD TIME 3.45600E+05  5760.0      96.000      4.0000     1.09514E-02
         TOTAL TIME 9.07200E+06 1.51200E+05  2520.0      105.00     0.28747    
1
 
 SOLVING FOR HEAD 

 OUTPUT CONTROL FOR STRESS PERIOD    3   TIME STEP    5
    SAVE HEAD FOR ALL LAYERS
    SAVE DRAWDOWN FOR ALL LAYERS
    SAVE BUDGET
    PRINT HEAD FOR ALL LAYERS
    PRINT BUDGET
 UBDSV1 SAVING "         STORAGE" ON UNIT  53 AT TIME STEP  5, STRESS PERIOD   3
 UBDSV2 SAVING "   CONSTANT HEAD" ON UNIT  53 AT TIME STEP  5, STRESS PERIOD   3
 UBDSV1 SAVING "FLOW RIGHT FACE " ON UNIT  53 AT TIME STEP  5, STRESS PERIOD   3
 UBDSV1 SAVING "FLOW FRONT FACE " ON UNIT  53 AT TIME STEP  5, STRESS PERIOD   3
1
              HEAD IN LAYER   1 AT END OF TIME STEP   5 IN STRESS PERIOD    3
  ---------------------------------------------------------------------------

            1           2           3           4           5           6           7           8           9          10
 ........................................................................................................................
   1    9.998       9.821       9.577       9.193       8.586       7.671       6.371       4.641       2.494      2.5316E-02
   2    9.998       9.821       9.577       9.192       8.584       7.671       6.371       4.641       2.494      2.5316E-02
   3    9.998       9.821       9.576       9.188       8.567       7.666       6.371       4.641       2.494      2.5316E-02
   4    9.998       9.821       9.572       9.155       8.402       7.633       6.366       4.641       2.494      2.5316E-02
   5    9.998       9.820       9.558       9.009       7.116       7.486       6.352       4.639       2.494      2.5315E-02
   6    9.998       9.821       9.572       9.155       8.402       7.633       6.366       4.641       2.494      2.5316E-02
   7    9.998       9.821       9.576       9.188       8.567       7.666       6.371       4.641       2.494      2.5316E-02
   8    9.998       9.821       9.577       9.192       8.584       7.671       6.371       4.641       2.494      2.5316E-02
   9    9.998       9.821       9.577       9.193       8.586       7.671       6.371       4.641       2.494      2.5316E-02
  10    9.998       9.821       9.577       9.193       8.586       7.671       6.371       4.641       2.494      2.5316E-02

 HEAD WILL BE SAVED ON UNIT   51 AT END OF TIME STEP    5, STRESS PERIOD    3

 DRAWDOWN WILL BE SAVED ON UNIT   52 AT END OF TIME STEP    5, STRESS PERIOD    3
1
  VOLUMETRIC BUDGET FOR ENTIRE MODEL AT END OF TIME STEP    5, STRESS PERIOD   3
  ------------------------------------------------------------------------------

     CUMULATIVE VOLUMES      L**3       RATES FOR THIS TIME STEP      L**3/T
     ------------------                 ------------------------

           IN:                                      IN:
           ---                                      ---
             STORAGE =      318705.0625               STORAGE =        1660.1053
       CONSTANT HEAD =           0.0000         CONSTANT HEAD =           0.0000
               WELLS =           0.0000                 WELLS =           0.0000
     HEAD DEP BOUNDS =        2922.1860       HEAD DEP BOUNDS =         105.6834

            TOTAL IN =      321627.2500              TOTAL IN =        1765.7887

          OUT:                                     OUT:
          ----                                     ----
             STORAGE =           0.0000               STORAGE =           0.0000
       CONSTANT HEAD =           0.0000         CONSTANT HEAD =           0.0000
               WELLS =        2500.0000                 WELLS =         500.0000
     HEAD DEP BOUNDS =      319127.2188       HEAD DEP BOUNDS =        1265.8037

           TOTAL OUT =      321627.2188             TOTAL OUT =        1765.8037

            IN - OUT =       3.1250E-02              IN - OUT =      -1.5015E-02

 PERCENT DISCREPANCY =           0.00     PERCENT DISCREPANCY =          -0.00






         TIME SUMMARY AT END OF TIME STEP    5 IN STRESS PERIOD    3
                    SECONDS     MINUTES      HOURS       DAYS        YEARS
                    -----------------------------------------------------------
   TIME STEP LENGTH  86400.      1440.0      24.000     1.00000     2.73785E-03
 STRESS PERIOD TIME 4.32000E+05  7200.0      120.00      5.0000     1.36893E-02
         TOTAL TIME 9.15840E+06 1.52640E+05  2544.0      106.00     0.29021    
1
 
 SOLVING FOR HEAD 

 OUTPUT CONTROL FOR STRESS PERIOD    3   TIME STEP    6
    SAVE HEAD FOR ALL LAYERS
    SAVE DRAWDOWN FOR ALL LAYERS
    SAVE BUDGET
    PRINT HEAD FOR ALL LAYERS
    PRINT BUDGET
 UBDSV1 SAVING "         STORAGE" ON UNIT  53 AT TIME STEP  6, STRESS PERIOD   3
 UBDSV2 SAVING "   CONSTANT HEAD" ON UNIT  53 AT TIME STEP  6, STRESS PERIOD   3
 UBDSV1 SAVING "FLOW RIGHT FACE " ON UNIT  53 AT TIME STEP  6, STRESS PERIOD   3
 UBDSV1 SAVING "FLOW FRONT FACE " ON UNIT  53 AT TIME STEP  6, STRESS PERIOD   3
1
              HEAD IN LAYER   1 AT END OF TIME STEP   6 IN STRESS PERIOD    3
  ---------------------------------------------------------------------------

            1           2           3           4           5           6           7           8           9          10
 ........................................................................................................................
   1    9.998       9.817       9.569       9.180       8.569       7.650       6.350       4.623       2.483      2.5199E-02
   2    9.998       9.817       9.569       9.179       8.566       7.650       6.349       4.622       2.483      2.5199E-02
   3    9.998       9.817       9.568       9.172       8.541       7.642       6.348       4.622       2.483      2.5198E-02
   4    9.998       9.816       9.561       9.126       8.336       7.597       6.342       4.622       2.482      2.5198E-02
   5    9.998       9.815       9.541       8.948       6.924       7.416       6.322       4.620       2.482      2.5196E-02
   6    9.998       9.816       9.561       9.126       8.336       7.597       6.342       4.622       2.482      2.5198E-02
   7    9.998       9.817       9.568       9.172       8.541       7.642       6.348       4.622       2.483      2.5198E-02
   8    9.998       9.817       9.569       9.179       8.566       7.650       6.349       4.622       2.483      2.5199E-02
   9    9.998       9.817       9.569       9.180       8.569       7.650       6.350       4.623       2.483      2.5199E-02
  10    9.998       9.817       9.569       9.180       8.569       7.651       6.350       4.623       2.483      2.5199E-02

 HEAD WILL BE SAVED ON UNIT   51 AT END OF TIME STEP    6, STRESS PERIOD    3

 DRAWDOWN WILL BE SAVED ON UNIT   52 AT END OF TIME STEP    6, STRESS PERIOD    3
1
  VOLUMETRIC BUDGET FOR ENTIRE MODEL AT END OF TIME STEP    6, STRESS PERIOD   3
  ------------------------------------------------------------------------------

     CUMULATIVE VOLUMES      L**3       RATES FOR THIS TIME STEP      L**3/T
     ------------------                 ------------------------

           IN:                                      IN:
           ---                                      ---
             STORAGE =      320356.7812               STORAGE =        1651.7231
       CONSTANT HEAD =           0.0000         CONSTANT HEAD =           0.0000
               WELLS =           0.0000                 WELLS =           0.0000
     HEAD DEP BOUNDS =        3030.3662       HEAD DEP BOUNDS =         108.1802

            TOTAL IN =      323387.1562              TOTAL IN =        1759.9033

          OUT:                                     OUT:
          ----                                     ----
             STORAGE =           0.0000               STORAGE =           0.0000
       CONSTANT HEAD =           0.0000         CONSTANT HEAD =           0.0000
               WELLS =        3000.0000                 WELLS =         500.0000
     HEAD DEP BOUNDS =      320387.1250       HEAD DEP BOUNDS =        1259.9064

           TOTAL OUT =      323387.1250             TOTAL OUT =        1759.9064

            IN - OUT =       3.1250E-02              IN - OUT =      -3.0518E-03

 PERCENT DISCREPANCY =           0.00     PERCENT DISCREPANCY =          -0.00






         TIME SUMMARY AT END OF TIME STEP    6 IN STRESS PERIOD    3
                    SECONDS     MINUTES      HOURS       DAYS        YEARS
                    -----------------------------------------------------------
   TIME STEP LENGTH  86400.      1440.0      24.000     1.00000     2.73785E-03
 STRESS PERIOD TIME 5.18400E+05  8640.0      144.00      6.0000     1.64271E-02
         TOTAL TIME 9.24480E+06 1.54080E+05  2568.0      107.00     0.29295    
1
 
 SOLVING FOR HEAD 

 OUTPUT CONTROL FOR STRESS PERIOD    3   TIME STEP    7
    SAVE HEAD FOR ALL LAYERS
    SAVE DRAWDOWN FOR ALL LAYERS
    SAVE BUDGET
    PRINT HEAD FOR ALL LAYERS
    PRINT BUDGET
 UBDSV1 SAVING "         STORAGE" ON UNIT  53 AT TIME STEP  7, STRESS PERIOD   3
 UBDSV2 SAVING "   CONSTANT HEAD" ON UNIT  53 AT TIME STEP  7, STRESS PERIOD   3
 UBDSV1 SAVING "FLOW RIGHT FACE " ON UNIT  53 AT TIME STEP  7, STRESS PERIOD   3
 UBDSV1 SAVING "FLOW FRONT FACE " ON UNIT  53 AT TIME STEP  7, STRESS PERIOD   3
1
              HEAD IN LAYER   1 AT END OF TIME STEP   7 IN STRESS PERIOD    3
  ---------------------------------------------------------------------------

            1           2           3           4           5           6           7           8           9          10
 ........................................................................................................................
   1    9.998       9.813       9.561       9.167       8.551       7.630       6.328       4.604       2.471      2.5083E-02
   2    9.998       9.813       9.560       9.166       8.547       7.628       6.328       4.604       2.471      2.5082E-02
   3    9.998       9.813       9.558       9.155       8.514       7.618       6.326       4.604       2.471      2.5082E-02
   4    9.998       9.812       9.549       9.096       8.270       7.559       6.316       4.602       2.471      2.5081E-02
   5    9.998       9.809       9.524       8.887       6.755       7.347       6.291       4.600       2.471      2.5078E-02
   6    9.998       9.812       9.549       9.096       8.270       7.559       6.316       4.602       2.471      2.5081E-02
   7    9.998       9.813       9.558       9.155       8.514       7.618       6.326       4.604       2.471      2.5082E-02
   8    9.998       9.813       9.560       9.166       8.547       7.628       6.328       4.604       2.471      2.5082E-02
   9    9.998       9.813       9.561       9.167       8.551       7.630       6.328       4.604       2.471      2.5083E-02
  10    9.998       9.813       9.561       9.167       8.552       7.630       6.328       4.604       2.471      2.5083E-02

 HEAD WILL BE SAVED ON UNIT   51 AT END OF TIME STEP    7, STRESS PERIOD    3

 DRAWDOWN WILL BE SAVED ON UNIT   52 AT END OF TIME STEP    7, STRESS PERIOD    3
1
  VOLUMETRIC BUDGET FOR ENTIRE MODEL AT END OF TIME STEP    7, STRESS PERIOD   3
  ------------------------------------------------------------------------------

     CUMULATIVE VOLUMES      L**3       RATES FOR THIS TIME STEP      L**3/T
     ------------------                 ------------------------

           IN:                                      IN:
           ---                                      ---
             STORAGE =      322000.1250               STORAGE =        1643.3488
       CONSTANT HEAD =           0.0000         CONSTANT HEAD =           0.0000
               WELLS =           0.0000                 WELLS =           0.0000
     HEAD DEP BOUNDS =        3141.0974       HEAD DEP BOUNDS =         110.7312

            TOTAL IN =      325141.2188              TOTAL IN =        1754.0800

          OUT:                                     OUT:
          ----                                     ----
             STORAGE =           0.0000               STORAGE =           0.0000
       CONSTANT HEAD =           0.0000         CONSTANT HEAD =           0.0000
               WELLS =        3500.0000                 WELLS =         500.0000
     HEAD DEP BOUNDS =      321641.2188       HEAD DEP BOUNDS =        1254.0836

           TOTAL OUT =      325141.2188             TOTAL OUT =        1754.0836

            IN - OUT =           0.0000              IN - OUT =      -3.6621E-03

 PERCENT DISCREPANCY =           0.00     PERCENT DISCREPANCY =          -0.00






         TIME SUMMARY AT END OF TIME STEP    7 IN STRESS PERIOD    3
                    SECONDS     MINUTES      HOURS       DAYS        YEARS
                    -----------------------------------------------------------
   TIME STEP LENGTH  86400.      1440.0      24.000     1.00000     2.73785E-03
 STRESS PERIOD TIME 6.04800E+05  10080.      168.00      7.0000     1.91650E-02
         TOTAL TIME 9.33120E+06 1.55520E+05  2592.0      108.00     0.29569    
1
 
 SOLVING FOR HEAD 

 OUTPUT CONTROL FOR STRESS PERIOD    3   TIME STEP    8
    SAVE HEAD FOR ALL LAYERS
    SAVE DRAWDOWN FOR ALL LAYERS
    SAVE BUDGET
    PRINT HEAD FOR ALL LAYERS
    PRINT BUDGET
 UBDSV1 SAVING "         STORAGE" ON UNIT  53 AT TIME STEP  8, STRESS PERIOD   3
 UBDSV2 SAVING "   CONSTANT HEAD" ON UNIT  53 AT TIME STEP  8, STRESS PERIOD   3
 UBDSV1 SAVING "FLOW RIGHT FACE " ON UNIT  53 AT TIME STEP  8, STRESS PERIOD   3
 UBDSV1 SAVING "FLOW FRONT FACE " ON UNIT  53 AT TIME STEP  8, STRESS PERIOD   3
1
              HEAD IN LAYER   1 AT END OF TIME STEP   8 IN STRESS PERIOD    3
  ---------------------------------------------------------------------------

            1           2           3           4           5           6           7           8           9          10
 ........................................................................................................................
   1    9.998       9.809       9.552       9.154       8.534       7.609       6.307       4.586       2.460      2.4968E-02
   2    9.998       9.809       9.552       9.152       8.528       7.607       6.306       4.586       2.460      2.4968E-02
   3    9.998       9.809       9.549       9.138       8.487       7.593       6.304       4.585       2.460      2.4967E-02
   4    9.998       9.807       9.536       9.064       8.205       7.519       6.291       4.583       2.460      2.4965E-02
   5    9.998       9.803       9.505       8.827       6.605       7.278       6.259       4.580       2.460      2.4962E-02
   6    9.998       9.807       9.536       9.064       8.205       7.519       6.291       4.583       2.460      2.4965E-02
   7    9.998       9.809       9.549       9.138       8.487       7.593       6.304       4.585       2.460      2.4967E-02
   8    9.998       9.809       9.552       9.152       8.528       7.607       6.306       4.586       2.460      2.4968E-02
   9    9.998       9.809       9.552       9.154       8.534       7.609       6.307       4.586       2.460      2.4968E-02
  10    9.998       9.809       9.553       9.154       8.534       7.609       6.307       4.586       2.460      2.4968E-02

 HEAD WILL BE SAVED ON UNIT   51 AT END OF TIME STEP    8, STRESS PERIOD    3

 DRAWDOWN WILL BE SAVED ON UNIT   52 AT END OF TIME STEP    8, STRESS PERIOD    3
1
  VOLUMETRIC BUDGET FOR ENTIRE MODEL AT END OF TIME STEP    8, STRESS PERIOD   3
  ------------------------------------------------------------------------------

     CUMULATIVE VOLUMES      L**3       RATES FOR THIS TIME STEP      L**3/T
     ------------------                 ------------------------

           IN:                                      IN:
           ---                                      ---
             STORAGE =      323635.1250               STORAGE =        1634.9923
       CONSTANT HEAD =           0.0000         CONSTANT HEAD =           0.0000
               WELLS =           0.0000                 WELLS =           0.0000
     HEAD DEP BOUNDS =        3254.4246       HEAD DEP BOUNDS =         113.3270

            TOTAL IN =      326889.5625              TOTAL IN =        1748.3193

          OUT:                                     OUT:
          ----                                     ----
             STORAGE =           0.0000               STORAGE =           0.0000
       CONSTANT HEAD =           0.0000         CONSTANT HEAD =           0.0000
               WELLS =        4000.0000                 WELLS =         500.0000
     HEAD DEP BOUNDS =      322889.5625       HEAD DEP BOUNDS =        1248.3311

           TOTAL OUT =      326889.5625             TOTAL OUT =        1748.3311

            IN - OUT =           0.0000              IN - OUT =      -1.1719E-02

 PERCENT DISCREPANCY =           0.00     PERCENT DISCREPANCY =          -0.00






         TIME SUMMARY AT END OF TIME STEP    8 IN STRESS PERIOD    3
                    SECONDS     MINUTES      HOURS       DAYS        YEARS
                    -----------------------------------------------------------
   TIME STEP LENGTH  86400.      1440.0      24.000     1.00000     2.73785E-03
 STRESS PERIOD TIME 6.91200E+05  11520.      192.00      8.0000     2.19028E-02
         TOTAL TIME 9.41760E+06 1.56960E+05  2616.0      109.00     0.29843    
1
 
 SOLVING FOR HEAD 

 OUTPUT CONTROL FOR STRESS PERIOD    3   TIME STEP    9
    SAVE HEAD FOR ALL LAYERS
    SAVE DRAWDOWN FOR ALL LAYERS
    SAVE BUDGET
    PRINT HEAD FOR ALL LAYERS
    PRINT BUDGET
 UBDSV1 SAVING "         STORAGE" ON UNIT  53 AT TIME STEP  9, STRESS PERIOD   3
 UBDSV2 SAVING "   CONSTANT HEAD" ON UNIT  53 AT TIME STEP  9, STRESS PERIOD   3
 UBDSV1 SAVING "FLOW RIGHT FACE " ON UNIT  53 AT TIME STEP  9, STRESS PERIOD   3
 UBDSV1 SAVING "FLOW FRONT FACE " ON UNIT  53 AT TIME STEP  9, STRESS PERIOD   3
1
              HEAD IN LAYER   1 AT END OF TIME STEP   9 IN STRESS PERIOD    3
  ---------------------------------------------------------------------------

            1           2           3           4           5           6           7           8           9          10
 ........................................................................................................................
   1    9.998       9.805       9.544       9.141       8.516       7.589       6.286       4.568       2.449      2.4855E-02
   2    9.998       9.805       9.543       9.138       8.509       7.586       6.285       4.567       2.449      2.4855E-02
   3    9.998       9.804       9.539       9.120       8.458       7.567       6.281       4.567       2.449      2.4854E-02
   4    9.998       9.802       9.522       9.031       8.142       7.478       6.264       4.564       2.449      2.4851E-02
   5    9.998       9.797       9.485       8.768       6.471       7.211       6.227       4.560       2.449      2.4846E-02
   6    9.998       9.802       9.522       9.031       8.142       7.478       6.264       4.564       2.449      2.4851E-02
   7    9.998       9.804       9.539       9.120       8.458       7.567       6.281       4.567       2.449      2.4854E-02
   8    9.998       9.805       9.543       9.138       8.509       7.586       6.285       4.567       2.449      2.4855E-02
   9    9.998       9.805       9.544       9.141       8.516       7.589       6.286       4.568       2.449      2.4855E-02
  10    9.998       9.805       9.544       9.141       8.517       7.589       6.286       4.568       2.449      2.4855E-02

 HEAD WILL BE SAVED ON UNIT   51 AT END OF TIME STEP    9, STRESS PERIOD    3

 DRAWDOWN WILL BE SAVED ON UNIT   52 AT END OF TIME STEP    9, STRESS PERIOD    3
1
  VOLUMETRIC BUDGET FOR ENTIRE MODEL AT END OF TIME STEP    9, STRESS PERIOD   3
  ------------------------------------------------------------------------------

     CUMULATIVE VOLUMES      L**3       RATES FOR THIS TIME STEP      L**3/T
     ------------------                 ------------------------

           IN:                                      IN:
           ---                                      ---
             STORAGE =      325261.7500               STORAGE =        1626.6389
       CONSTANT HEAD =           0.0000         CONSTANT HEAD =           0.0000
               WELLS =           0.0000                 WELLS =           0.0000
     HEAD DEP BOUNDS =        3370.4089       HEAD DEP BOUNDS =         115.9845

            TOTAL IN =      328632.1562              TOTAL IN =        1742.6234

          OUT:                                     OUT:
          ----                                     ----
             STORAGE =           0.0000               STORAGE =           0.0000
       CONSTANT HEAD =           0.0000         CONSTANT HEAD =           0.0000
               WELLS =        4500.0000                 WELLS =         500.0000
     HEAD DEP BOUNDS =      324132.2188       HEAD DEP BOUNDS =        1242.6423

           TOTAL OUT =      328632.2188             TOTAL OUT =        1742.6423

            IN - OUT =      -6.2500E-02              IN - OUT =      -1.8921E-02

 PERCENT DISCREPANCY =          -0.00     PERCENT DISCREPANCY =          -0.00






         TIME SUMMARY AT END OF TIME STEP    9 IN STRESS PERIOD    3
                    SECONDS     MINUTES      HOURS       DAYS        YEARS
                    -----------------------------------------------------------
   TIME STEP LENGTH  86400.      1440.0      24.000     1.00000     2.73785E-03
 STRESS PERIOD TIME 7.77600E+05  12960.      216.00      9.0000     2.46407E-02
         TOTAL TIME 9.50400E+06 1.58400E+05  2640.0      110.00     0.30116    
1
 
 SOLVING FOR HEAD 

 OUTPUT CONTROL FOR STRESS PERIOD    3   TIME STEP   10
    SAVE HEAD FOR ALL LAYERS
    SAVE DRAWDOWN FOR ALL LAYERS
    SAVE BUDGET
    PRINT HEAD FOR ALL LAYERS
    PRINT BUDGET
 UBDSV1 SAVING "         STORAGE" ON UNIT  53 AT TIME STEP 10, STRESS PERIOD   3
 UBDSV2 SAVING "   CONSTANT HEAD" ON UNIT  53 AT TIME STEP 10, STRESS PERIOD   3
 UBDSV1 SAVING "FLOW RIGHT FACE " ON UNIT  53 AT TIME STEP 10, STRESS PERIOD   3
 UBDSV1 SAVING "FLOW FRONT FACE " ON UNIT  53 AT TIME STEP 10, STRESS PERIOD   3
1
              HEAD IN LAYER   1 AT END OF TIME STEP  10 IN STRESS PERIOD    3
  ---------------------------------------------------------------------------

            1           2           3           4           5           6           7           8           9          10
 ........................................................................................................................
   1    9.998       9.801       9.536       9.128       8.499       7.568       6.265       4.550       2.439      2.4743E-02
   2    9.998       9.801       9.535       9.124       8.490       7.564       6.264       4.550       2.439      2.4743E-02
   3    9.998       9.800       9.529       9.101       8.430       7.541       6.258       4.549       2.439      2.4742E-02
   4    9.998       9.797       9.508       8.997       8.080       7.436       6.237       4.545       2.438      2.4737E-02
   5    9.998       9.791       9.465       8.711       6.350       7.145       6.194       4.540       2.437      2.4731E-02
   6    9.998       9.797       9.508       8.997       8.080       7.436       6.237       4.545       2.438      2.4737E-02
   7    9.998       9.800       9.529       9.101       8.430       7.541       6.258       4.549       2.439      2.4742E-02
   8    9.998       9.801       9.535       9.124       8.490       7.564       6.264       4.550       2.439      2.4743E-02
   9    9.998       9.801       9.536       9.128       8.499       7.568       6.265       4.550       2.439      2.4743E-02
  10    9.998       9.801       9.536       9.129       8.500       7.569       6.265       4.550       2.439      2.4743E-02

 HEAD WILL BE SAVED ON UNIT   51 AT END OF TIME STEP   10, STRESS PERIOD    3

 DRAWDOWN WILL BE SAVED ON UNIT   52 AT END OF TIME STEP   10, STRESS PERIOD    3
1
  VOLUMETRIC BUDGET FOR ENTIRE MODEL AT END OF TIME STEP   10, STRESS PERIOD   3
  ------------------------------------------------------------------------------

     CUMULATIVE VOLUMES      L**3       RATES FOR THIS TIME STEP      L**3/T
     ------------------                 ------------------------

           IN:                                      IN:
           ---                                      ---
             STORAGE =      326880.0312               STORAGE =        1618.2915
       CONSTANT HEAD =           0.0000         CONSTANT HEAD =           0.0000
               WELLS =           0.0000                 WELLS =           0.0000
     HEAD DEP BOUNDS =        3489.1411       HEAD DEP BOUNDS =         118.7323

            TOTAL IN =      330369.1875              TOTAL IN =        1737.0238

          OUT:                                     OUT:
          ----                                     ----
             STORAGE =           0.0000               STORAGE =           0.0000
       CONSTANT HEAD =           0.0000         CONSTANT HEAD =           0.0000
               WELLS =        5000.0000                 WELLS =         500.0000
     HEAD DEP BOUNDS =      325369.2500       HEAD DEP BOUNDS =        1237.0229

           TOTAL OUT =      330369.2500             TOTAL OUT =        1737.0229

            IN - OUT =      -6.2500E-02              IN - OUT =       8.5449E-04

 PERCENT DISCREPANCY =          -0.00     PERCENT DISCREPANCY =           0.00






         TIME SUMMARY AT END OF TIME STEP   10 IN STRESS PERIOD    3
                    SECONDS     MINUTES      HOURS       DAYS        YEARS
                    -----------------------------------------------------------
   TIME STEP LENGTH  86400.      1440.0      24.000     1.00000     2.73785E-03
 STRESS PERIOD TIME 8.64000E+05  14400.      240.00     10.0000     2.73785E-02
         TOTAL TIME 9.59040E+06 1.59840E+05  2664.0      111.00     0.30390    
1
 
 SOLVING FOR HEAD 

 OUTPUT CONTROL FOR STRESS PERIOD    3   TIME STEP   11
    SAVE HEAD FOR ALL LAYERS
    SAVE DRAWDOWN FOR ALL LAYERS
    SAVE BUDGET
    PRINT HEAD FOR ALL LAYERS
    PRINT BUDGET
 UBDSV1 SAVING "         STORAGE" ON UNIT  53 AT TIME STEP 11, STRESS PERIOD   3
 UBDSV2 SAVING "   CONSTANT HEAD" ON UNIT  53 AT TIME STEP 11, STRESS PERIOD   3
 UBDSV1 SAVING "FLOW RIGHT FACE " ON UNIT  53 AT TIME STEP 11, STRESS PERIOD   3
 UBDSV1 SAVING "FLOW FRONT FACE " ON UNIT  53 AT TIME STEP 11, STRESS PERIOD   3
1
              HEAD IN LAYER   1 AT END OF TIME STEP  11 IN STRESS PERIOD    3
  ---------------------------------------------------------------------------

            1           2           3           4           5           6           7           8           9          10
 ........................................................................................................................
   1    9.998       9.797       9.527       9.115       8.481       7.548       6.244       4.532       2.428      2.4633E-02
   2    9.998       9.797       9.526       9.110       8.470       7.543       6.243       4.532       2.428      2.4633E-02
   3    9.998       9.795       9.518       9.081       8.400       7.515       6.236       4.530       2.428      2.4631E-02
   4    9.998       9.791       9.493       8.962       8.019       7.394       6.210       4.526       2.427      2.4625E-02
   5    9.998       9.784       9.445       8.655       6.240       7.081       6.161       4.519       2.426      2.4617E-02
   6    9.998       9.791       9.493       8.962       8.019       7.394       6.210       4.526       2.427      2.4625E-02
   7    9.998       9.795       9.518       9.081       8.400       7.515       6.236       4.530       2.428      2.4631E-02
   8    9.998       9.797       9.526       9.110       8.470       7.543       6.243       4.532       2.428      2.4633E-02
   9    9.998       9.797       9.527       9.115       8.481       7.548       6.244       4.532       2.428      2.4633E-02
  10    9.998       9.797       9.528       9.116       8.483       7.549       6.244       4.532       2.428      2.4633E-02

 HEAD WILL BE SAVED ON UNIT   51 AT END OF TIME STEP   11, STRESS PERIOD    3

 DRAWDOWN WILL BE SAVED ON UNIT   52 AT END OF TIME STEP   11, STRESS PERIOD    3
1
  VOLUMETRIC BUDGET FOR ENTIRE MODEL AT END OF TIME STEP   11, STRESS PERIOD   3
  ------------------------------------------------------------------------------

     CUMULATIVE VOLUMES      L**3       RATES FOR THIS TIME STEP      L**3/T
     ------------------                 ------------------------

           IN:                                      IN:
           ---                                      ---
             STORAGE =      328489.9688               STORAGE =        1609.9270
       CONSTANT HEAD =           0.0000         CONSTANT HEAD =           0.0000
               WELLS =           0.0000                 WELLS =           0.0000
     HEAD DEP BOUNDS =        3610.6667       HEAD DEP BOUNDS =         121.5255

            TOTAL IN =      332100.6250              TOTAL IN =        1731.4525

          OUT:                                     OUT:
          ----                                     ----
             STORAGE =           0.0000               STORAGE =           0.0000
       CONSTANT HEAD =           0.0000         CONSTANT HEAD =           0.0000
               WELLS =        5500.0000                 WELLS =         500.0000
     HEAD DEP BOUNDS =      326600.7188       HEAD DEP BOUNDS =        1231.4667

           TOTAL OUT =      332100.7188             TOTAL OUT =        1731.4667

            IN - OUT =      -9.3750E-02              IN - OUT =      -1.4160E-02

 PERCENT DISCREPANCY =          -0.00     PERCENT DISCREPANCY =          -0.00






         TIME SUMMARY AT END OF TIME STEP   11 IN STRESS PERIOD    3
                    SECONDS     MINUTES      HOURS       DAYS        YEARS
                    -----------------------------------------------------------
   TIME STEP LENGTH  86400.      1440.0      24.000     1.00000     2.73785E-03
 STRESS PERIOD TIME 9.50400E+05  15840.      264.00      11.000     3.01164E-02
         TOTAL TIME 9.67680E+06 1.61280E+05  2688.0      112.00     0.30664    
1
 
 SOLVING FOR HEAD 

 OUTPUT CONTROL FOR STRESS PERIOD    3   TIME STEP   12
    SAVE HEAD FOR ALL LAYERS
    SAVE DRAWDOWN FOR ALL LAYERS
    SAVE BUDGET
    PRINT HEAD FOR ALL LAYERS
    PRINT BUDGET
 UBDSV1 SAVING "         STORAGE" ON UNIT  53 AT TIME STEP 12, STRESS PERIOD   3
 UBDSV2 SAVING "   CONSTANT HEAD" ON UNIT  53 AT TIME STEP 12, STRESS PERIOD   3
 UBDSV1 SAVING "FLOW RIGHT FACE " ON UNIT  53 AT TIME STEP 12, STRESS PERIOD   3
 UBDSV1 SAVING "FLOW FRONT FACE " ON UNIT  53 AT TIME STEP 12, STRESS PERIOD   3
1
              HEAD IN LAYER   1 AT END OF TIME STEP  12 IN STRESS PERIOD    3
  ---------------------------------------------------------------------------

            1           2           3           4           5           6           7           8           9          10
 ........................................................................................................................
   1    9.998       9.793       9.519       9.102       8.464       7.528       6.224       4.515       2.418      2.4525E-02
   2    9.998       9.793       9.517       9.095       8.450       7.521       6.222       4.514       2.418      2.4524E-02
   3    9.998       9.791       9.508       9.061       8.370       7.487       6.213       4.512       2.417      2.4521E-02
   4    9.998       9.785       9.477       8.927       7.961       7.352       6.182       4.507       2.417      2.4513E-02
   5    9.998       9.777       9.424       8.600       6.138       7.019       6.127       4.499       2.416      2.4503E-02
   6    9.998       9.785       9.477       8.927       7.961       7.352       6.182       4.507       2.417      2.4513E-02
   7    9.998       9.791       9.508       9.061       8.370       7.487       6.213       4.512       2.417      2.4521E-02
   8    9.998       9.793       9.517       9.095       8.450       7.521       6.222       4.514       2.418      2.4524E-02
   9    9.998       9.793       9.519       9.102       8.464       7.528       6.224       4.515       2.418      2.4525E-02
  10    9.998       9.793       9.519       9.103       8.466       7.529       6.224       4.515       2.418      2.4525E-02

 HEAD WILL BE SAVED ON UNIT   51 AT END OF TIME STEP   12, STRESS PERIOD    3

 DRAWDOWN WILL BE SAVED ON UNIT   52 AT END OF TIME STEP   12, STRESS PERIOD    3
1
  VOLUMETRIC BUDGET FOR ENTIRE MODEL AT END OF TIME STEP   12, STRESS PERIOD   3
  ------------------------------------------------------------------------------

     CUMULATIVE VOLUMES      L**3       RATES FOR THIS TIME STEP      L**3/T
     ------------------                 ------------------------

           IN:                                      IN:
           ---                                      ---
             STORAGE =      330091.5312               STORAGE =        1601.5665
       CONSTANT HEAD =           0.0000         CONSTANT HEAD =           0.0000
               WELLS =           0.0000                 WELLS =           0.0000
     HEAD DEP BOUNDS =        3735.0786       HEAD DEP BOUNDS =         124.4118

            TOTAL IN =      333826.6250              TOTAL IN =        1725.9784

          OUT:                                     OUT:
          ----                                     ----
             STORAGE =           0.0000               STORAGE =           0.0000
       CONSTANT HEAD =           0.0000         CONSTANT HEAD =           0.0000
               WELLS =        6000.0000                 WELLS =         500.0000
     HEAD DEP BOUNDS =      327826.6875       HEAD DEP BOUNDS =        1225.9708

           TOTAL OUT =      333826.6875             TOTAL OUT =        1725.9708

            IN - OUT =      -6.2500E-02              IN - OUT =       7.5684E-03

 PERCENT DISCREPANCY =          -0.00     PERCENT DISCREPANCY =           0.00






         TIME SUMMARY AT END OF TIME STEP   12 IN STRESS PERIOD    3
                    SECONDS     MINUTES      HOURS       DAYS        YEARS
                    -----------------------------------------------------------
   TIME STEP LENGTH  86400.      1440.0      24.000     1.00000     2.73785E-03
 STRESS PERIOD TIME 1.03680E+06  17280.      288.00      12.000     3.28542E-02
         TOTAL TIME 9.76320E+06 1.62720E+05  2712.0      113.00     0.30938    
1
 
 SOLVING FOR HEAD 

 OUTPUT CONTROL FOR STRESS PERIOD    3   TIME STEP   13
    SAVE HEAD FOR ALL LAYERS
    SAVE DRAWDOWN FOR ALL LAYERS
    SAVE BUDGET
    PRINT HEAD FOR ALL LAYERS
    PRINT BUDGET
 UBDSV1 SAVING "         STORAGE" ON UNIT  53 AT TIME STEP 13, STRESS PERIOD   3
 UBDSV2 SAVING "   CONSTANT HEAD" ON UNIT  53 AT TIME STEP 13, STRESS PERIOD   3
 UBDSV1 SAVING "FLOW RIGHT FACE " ON UNIT  53 AT TIME STEP 13, STRESS PERIOD   3
 UBDSV1 SAVING "FLOW FRONT FACE " ON UNIT  53 AT TIME STEP 13, STRESS PERIOD   3
1
              HEAD IN LAYER   1 AT END OF TIME STEP  13 IN STRESS PERIOD    3
  ---------------------------------------------------------------------------

            1           2           3           4           5           6           7           8           9          10
 ........................................................................................................................
   1    9.998       9.789       9.510       9.088       8.446       7.507       6.203       4.497       2.407      2.4417E-02
   2    9.998       9.788       9.508       9.080       8.430       7.499       6.201       4.497       2.407      2.4416E-02
   3    9.998       9.786       9.496       9.041       8.340       7.460       6.190       4.494       2.407      2.4412E-02
   4    9.998       9.779       9.461       8.892       7.904       7.309       6.154       4.488       2.406      2.4402E-02
   5    9.998       9.770       9.402       8.548       6.045       6.959       6.094       4.478       2.405      2.4390E-02
   6    9.998       9.779       9.461       8.892       7.904       7.309       6.154       4.488       2.406      2.4402E-02
   7    9.998       9.786       9.496       9.041       8.340       7.460       6.190       4.494       2.407      2.4412E-02
   8    9.998       9.788       9.508       9.080       8.430       7.500       6.201       4.497       2.407      2.4416E-02
   9    9.998       9.789       9.510       9.089       8.446       7.508       6.203       4.497       2.407      2.4417E-02
  10    9.998       9.789       9.511       9.090       8.449       7.509       6.204       4.497       2.407      2.4418E-02

 HEAD WILL BE SAVED ON UNIT   51 AT END OF TIME STEP   13, STRESS PERIOD    3

 DRAWDOWN WILL BE SAVED ON UNIT   52 AT END OF TIME STEP   13, STRESS PERIOD    3
1
  VOLUMETRIC BUDGET FOR ENTIRE MODEL AT END OF TIME STEP   13, STRESS PERIOD   3
  ------------------------------------------------------------------------------

     CUMULATIVE VOLUMES      L**3       RATES FOR THIS TIME STEP      L**3/T
     ------------------                 ------------------------

           IN:                                      IN:
           ---                                      ---
             STORAGE =      331684.7188               STORAGE =        1593.1749
       CONSTANT HEAD =           0.0000         CONSTANT HEAD =           0.0000
               WELLS =           0.0000                 WELLS =           0.0000
     HEAD DEP BOUNDS =        3862.4365       HEAD DEP BOUNDS =         127.3580

            TOTAL IN =      335547.1562              TOTAL IN =        1720.5330

          OUT:                                     OUT:
          ----                                     ----
             STORAGE =           0.0000               STORAGE =           0.0000
       CONSTANT HEAD =           0.0000         CONSTANT HEAD =           0.0000
               WELLS =        6500.0000                 WELLS =         500.0000
     HEAD DEP BOUNDS =      329047.2188       HEAD DEP BOUNDS =        1220.5249

           TOTAL OUT =      335547.2188             TOTAL OUT =        1720.5249

            IN - OUT =      -6.2500E-02              IN - OUT =       8.0566E-03

 PERCENT DISCREPANCY =          -0.00     PERCENT DISCREPANCY =           0.00






         TIME SUMMARY AT END OF TIME STEP   13 IN STRESS PERIOD    3
                    SECONDS     MINUTES      HOURS       DAYS        YEARS
                    -----------------------------------------------------------
   TIME STEP LENGTH  86400.      1440.0      24.000     1.00000     2.73785E-03
 STRESS PERIOD TIME 1.12320E+06  18720.      312.00      13.000     3.55921E-02
         TOTAL TIME 9.84960E+06 1.64160E+05  2736.0      114.00     0.31211    
1
 
 SOLVING FOR HEAD 

 OUTPUT CONTROL FOR STRESS PERIOD    3   TIME STEP   14
    SAVE HEAD FOR ALL LAYERS
    SAVE DRAWDOWN FOR ALL LAYERS
    SAVE BUDGET
    PRINT HEAD FOR ALL LAYERS
    PRINT BUDGET
 UBDSV1 SAVING "         STORAGE" ON UNIT  53 AT TIME STEP 14, STRESS PERIOD   3
 UBDSV2 SAVING "   CONSTANT HEAD" ON UNIT  53 AT TIME STEP 14, STRESS PERIOD   3
 UBDSV1 SAVING "FLOW RIGHT FACE " ON UNIT  53 AT TIME STEP 14, STRESS PERIOD   3
 UBDSV1 SAVING "FLOW FRONT FACE " ON UNIT  53 AT TIME STEP 14, STRESS PERIOD   3
1
              HEAD IN LAYER   1 AT END OF TIME STEP  14 IN STRESS PERIOD    3
  ---------------------------------------------------------------------------

            1           2           3           4           5           6           7           8           9          10
 ........................................................................................................................
   1    9.998       9.785       9.502       9.075       8.428       7.487       6.183       4.480       2.397      2.4312E-02
   2    9.998       9.784       9.498       9.065       8.410       7.478       6.180       4.479       2.397      2.4310E-02
   3    9.998       9.781       9.485       9.020       8.310       7.432       6.167       4.476       2.397      2.4305E-02
   4    9.998       9.773       9.445       8.856       7.848       7.266       6.126       4.468       2.395      2.4292E-02
   5    9.998       9.763       9.380       8.497       5.958       6.900       6.060       4.458       2.394      2.4277E-02
   6    9.998       9.773       9.445       8.856       7.848       7.266       6.126       4.468       2.395      2.4292E-02
   7    9.998       9.781       9.485       9.020       8.310       7.432       6.167       4.476       2.397      2.4305E-02
   8    9.998       9.784       9.498       9.066       8.410       7.478       6.180       4.479       2.397      2.4310E-02
   9    9.998       9.785       9.502       9.076       8.429       7.488       6.183       4.480       2.397      2.4312E-02
  10    9.998       9.785       9.502       9.077       8.432       7.489       6.184       4.480       2.397      2.4312E-02

 HEAD WILL BE SAVED ON UNIT   51 AT END OF TIME STEP   14, STRESS PERIOD    3

 DRAWDOWN WILL BE SAVED ON UNIT   52 AT END OF TIME STEP   14, STRESS PERIOD    3
1
  VOLUMETRIC BUDGET FOR ENTIRE MODEL AT END OF TIME STEP   14, STRESS PERIOD   3
  ------------------------------------------------------------------------------

     CUMULATIVE VOLUMES      L**3       RATES FOR THIS TIME STEP      L**3/T
     ------------------                 ------------------------

           IN:                                      IN:
           ---                                      ---
             STORAGE =      333269.5000               STORAGE =        1584.7745
       CONSTANT HEAD =           0.0000         CONSTANT HEAD =           0.0000
               WELLS =           0.0000                 WELLS =           0.0000
     HEAD DEP BOUNDS =        3992.8003       HEAD DEP BOUNDS =         130.3638

            TOTAL IN =      337262.3125              TOTAL IN =        1715.1384

          OUT:                                     OUT:
          ----                                     ----
             STORAGE =           0.0000               STORAGE =           0.0000
       CONSTANT HEAD =           0.0000         CONSTANT HEAD =           0.0000
               WELLS =        7000.0000                 WELLS =         500.0000
     HEAD DEP BOUNDS =      330262.3438       HEAD DEP BOUNDS =        1215.1367

           TOTAL OUT =      337262.3438             TOTAL OUT =        1715.1367

            IN - OUT =      -3.1250E-02              IN - OUT =       1.7090E-03

 PERCENT DISCREPANCY =          -0.00     PERCENT DISCREPANCY =           0.00






         TIME SUMMARY AT END OF TIME STEP   14 IN STRESS PERIOD    3
                    SECONDS     MINUTES      HOURS       DAYS        YEARS
                    -----------------------------------------------------------
   TIME STEP LENGTH  86400.      1440.0      24.000     1.00000     2.73785E-03
 STRESS PERIOD TIME 1.20960E+06  20160.      336.00      14.000     3.83299E-02
         TOTAL TIME 9.93600E+06 1.65600E+05  2760.0      115.00     0.31485    
1
 
 SOLVING FOR HEAD 

 OUTPUT CONTROL FOR STRESS PERIOD    3   TIME STEP   15
    SAVE HEAD FOR ALL LAYERS
    SAVE DRAWDOWN FOR ALL LAYERS
    SAVE BUDGET
    PRINT HEAD FOR ALL LAYERS
    PRINT BUDGET
 UBDSV1 SAVING "         STORAGE" ON UNIT  53 AT TIME STEP 15, STRESS PERIOD   3
 UBDSV2 SAVING "   CONSTANT HEAD" ON UNIT  53 AT TIME STEP 15, STRESS PERIOD   3
 UBDSV1 SAVING "FLOW RIGHT FACE " ON UNIT  53 AT TIME STEP 15, STRESS PERIOD   3
 UBDSV1 SAVING "FLOW FRONT FACE " ON UNIT  53 AT TIME STEP 15, STRESS PERIOD   3
1
              HEAD IN LAYER   1 AT END OF TIME STEP  15 IN STRESS PERIOD    3
  ---------------------------------------------------------------------------

            1           2           3           4           5           6           7           8           9          10
 ........................................................................................................................
   1    9.998       9.781       9.493       9.062       8.411       7.467       6.163       4.463       2.387      2.4207E-02
   2    9.998       9.780       9.489       9.050       8.390       7.456       6.159       4.462       2.387      2.4205E-02
   3    9.998       9.776       9.473       8.998       8.280       7.404       6.143       4.459       2.386      2.4199E-02
   4    9.998       9.767       9.427       8.821       7.795       7.224       6.097       4.449       2.385      2.4182E-02
   5    9.998       9.755       9.359       8.447       5.878       6.843       6.026       4.437       2.383      2.4165E-02
   6    9.998       9.767       9.427       8.821       7.795       7.224       6.097       4.449       2.385      2.4182E-02
   7    9.998       9.776       9.473       8.998       8.280       7.404       6.143       4.459       2.386      2.4199E-02
   8    9.998       9.780       9.489       9.050       8.390       7.456       6.159       4.462       2.387      2.4205E-02
   9    9.998       9.781       9.493       9.062       8.411       7.468       6.163       4.463       2.387      2.4207E-02
  10    9.998       9.781       9.494       9.065       8.415       7.470       6.164       4.463       2.387      2.4208E-02

 HEAD WILL BE SAVED ON UNIT   51 AT END OF TIME STEP   15, STRESS PERIOD    3

 DRAWDOWN WILL BE SAVED ON UNIT   52 AT END OF TIME STEP   15, STRESS PERIOD    3
1
  VOLUMETRIC BUDGET FOR ENTIRE MODEL AT END OF TIME STEP   15, STRESS PERIOD   3
  ------------------------------------------------------------------------------

     CUMULATIVE VOLUMES      L**3       RATES FOR THIS TIME STEP      L**3/T
     ------------------                 ------------------------

           IN:                                      IN:
           ---                                      ---
             STORAGE =      334845.8438               STORAGE =        1576.3535
       CONSTANT HEAD =           0.0000         CONSTANT HEAD =           0.0000
               WELLS =           0.0000                 WELLS =           0.0000
     HEAD DEP BOUNDS =        4126.2290       HEAD DEP BOUNDS =         133.4285

            TOTAL IN =      338972.0625              TOTAL IN =        1709.7820

          OUT:                                     OUT:
          ----                                     ----
             STORAGE =           0.0000               STORAGE =           0.0000
       CONSTANT HEAD =           0.0000         CONSTANT HEAD =           0.0000
               WELLS =        7500.0000                 WELLS =         500.0000
     HEAD DEP BOUNDS =      331472.1562       HEAD DEP BOUNDS =        1209.7992

           TOTAL OUT =      338972.1562             TOTAL OUT =        1709.7992

            IN - OUT =      -9.3750E-02              IN - OUT =      -1.7212E-02

 PERCENT DISCREPANCY =          -0.00     PERCENT DISCREPANCY =          -0.00






         TIME SUMMARY AT END OF TIME STEP   15 IN STRESS PERIOD    3
                    SECONDS     MINUTES      HOURS       DAYS        YEARS
                    -----------------------------------------------------------
   TIME STEP LENGTH  86400.      1440.0      24.000     1.00000     2.73785E-03
 STRESS PERIOD TIME 1.29600E+06  21600.      360.00      15.000     4.10678E-02
         TOTAL TIME 1.00224E+07 1.67040E+05  2784.0      116.00     0.31759    
1
 
 SOLVING FOR HEAD 

 OUTPUT CONTROL FOR STRESS PERIOD    3   TIME STEP   16
    SAVE HEAD FOR ALL LAYERS
    SAVE DRAWDOWN FOR ALL LAYERS
    SAVE BUDGET
    PRINT HEAD FOR ALL LAYERS
    PRINT BUDGET
 UBDSV1 SAVING "         STORAGE" ON UNIT  53 AT TIME STEP 16, STRESS PERIOD   3
 UBDSV2 SAVING "   CONSTANT HEAD" ON UNIT  53 AT TIME STEP 16, STRESS PERIOD   3
 UBDSV1 SAVING "FLOW RIGHT FACE " ON UNIT  53 AT TIME STEP 16, STRESS PERIOD   3
 UBDSV1 SAVING "FLOW FRONT FACE " ON UNIT  53 AT TIME STEP 16, STRESS PERIOD   3
1
              HEAD IN LAYER   1 AT END OF TIME STEP  16 IN STRESS PERIOD    3
  ---------------------------------------------------------------------------

            1           2           3           4           5           6           7           8           9          10
 ........................................................................................................................
   1    9.998       9.776       9.484       9.048       8.393       7.447       6.143       4.446       2.377      2.4104E-02
   2    9.998       9.775       9.479       9.035       8.369       7.434       6.138       4.445       2.377      2.4101E-02
   3    9.998       9.771       9.461       8.977       8.250       7.375       6.120       4.441       2.376      2.4093E-02
   4    9.998       9.760       9.410       8.785       7.742       7.182       6.068       4.430       2.374      2.4073E-02
   5    9.998       9.747       9.337       8.400       5.802       6.788       5.993       4.417       2.372      2.4053E-02
   6    9.998       9.760       9.410       8.785       7.742       7.182       6.068       4.430       2.374      2.4073E-02
   7    9.998       9.771       9.461       8.977       8.250       7.375       6.120       4.441       2.376      2.4093E-02
   8    9.998       9.775       9.480       9.035       8.369       7.434       6.138       4.445       2.377      2.4101E-02
   9    9.998       9.776       9.485       9.049       8.394       7.448       6.143       4.447       2.377      2.4104E-02
  10    9.998       9.777       9.486       9.052       8.398       7.450       6.144       4.447       2.377      2.4105E-02

 HEAD WILL BE SAVED ON UNIT   51 AT END OF TIME STEP   16, STRESS PERIOD    3

 DRAWDOWN WILL BE SAVED ON UNIT   52 AT END OF TIME STEP   16, STRESS PERIOD    3
1
  VOLUMETRIC BUDGET FOR ENTIRE MODEL AT END OF TIME STEP   16, STRESS PERIOD   3
  ------------------------------------------------------------------------------

     CUMULATIVE VOLUMES      L**3       RATES FOR THIS TIME STEP      L**3/T
     ------------------                 ------------------------

           IN:                                      IN:
           ---                                      ---
             STORAGE =      336413.7500               STORAGE =        1567.9110
       CONSTANT HEAD =           0.0000         CONSTANT HEAD =           0.0000
               WELLS =           0.0000                 WELLS =           0.0000
     HEAD DEP BOUNDS =        4262.8130       HEAD DEP BOUNDS =         136.5838

            TOTAL IN =      340676.5625              TOTAL IN =        1704.4949

          OUT:                                     OUT:
          ----                                     ----
             STORAGE =           0.0000               STORAGE =           0.0000
       CONSTANT HEAD =           0.0000         CONSTANT HEAD =           0.0000
               WELLS =        8000.0000                 WELLS =         500.0000
     HEAD DEP BOUNDS =      332676.6562       HEAD DEP BOUNDS =        1204.5020

           TOTAL OUT =      340676.6562             TOTAL OUT =        1704.5020

            IN - OUT =      -9.3750E-02              IN - OUT =      -7.0801E-03

 PERCENT DISCREPANCY =          -0.00     PERCENT DISCREPANCY =          -0.00






         TIME SUMMARY AT END OF TIME STEP   16 IN STRESS PERIOD    3
                    SECONDS     MINUTES      HOURS       DAYS        YEARS
                    -----------------------------------------------------------
   TIME STEP LENGTH  86400.      1440.0      24.000     1.00000     2.73785E-03
 STRESS PERIOD TIME 1.38240E+06  23040.      384.00      16.000     4.38056E-02
         TOTAL TIME 1.01088E+07 1.68480E+05  2808.0      117.00     0.32033    
1
 
 SOLVING FOR HEAD 

 OUTPUT CONTROL FOR STRESS PERIOD    3   TIME STEP   17
    SAVE HEAD FOR ALL LAYERS
    SAVE DRAWDOWN FOR ALL LAYERS
    SAVE BUDGET
    PRINT HEAD FOR ALL LAYERS
    PRINT BUDGET
 UBDSV1 SAVING "         STORAGE" ON UNIT  53 AT TIME STEP 17, STRESS PERIOD   3
 UBDSV2 SAVING "   CONSTANT HEAD" ON UNIT  53 AT TIME STEP 17, STRESS PERIOD   3
 UBDSV1 SAVING "FLOW RIGHT FACE " ON UNIT  53 AT TIME STEP 17, STRESS PERIOD   3
 UBDSV1 SAVING "FLOW FRONT FACE " ON UNIT  53 AT TIME STEP 17, STRESS PERIOD   3
1
              HEAD IN LAYER   1 AT END OF TIME STEP  17 IN STRESS PERIOD    3
  ---------------------------------------------------------------------------

            1           2           3           4           5           6           7           8           9          10
 ........................................................................................................................
   1    9.998       9.772       9.475       9.035       8.375       7.427       6.123       4.430       2.367      2.4002E-02
   2    9.998       9.771       9.470       9.019       8.348       7.412       6.118       4.428       2.367      2.3999E-02
   3    9.998       9.765       9.449       8.955       8.219       7.347       6.096       4.423       2.366      2.3988E-02
   4    9.998       9.753       9.392       8.751       7.692       7.140       6.039       4.410       2.364      2.3965E-02
   5    9.997       9.739       9.315       8.353       5.730       6.734       5.959       4.396       2.361      2.3941E-02
   6    9.998       9.753       9.392       8.751       7.692       7.140       6.039       4.410       2.364      2.3965E-02
   7    9.998       9.765       9.449       8.955       8.219       7.347       6.096       4.423       2.366      2.3988E-02
   8    9.998       9.771       9.470       9.019       8.348       7.412       6.118       4.428       2.367      2.3999E-02
   9    9.998       9.772       9.476       9.036       8.376       7.428       6.123       4.430       2.367      2.4002E-02
  10    9.998       9.773       9.477       9.039       8.382       7.431       6.125       4.430       2.367      2.4003E-02

 HEAD WILL BE SAVED ON UNIT   51 AT END OF TIME STEP   17, STRESS PERIOD    3

 DRAWDOWN WILL BE SAVED ON UNIT   52 AT END OF TIME STEP   17, STRESS PERIOD    3
1
  VOLUMETRIC BUDGET FOR ENTIRE MODEL AT END OF TIME STEP   17, STRESS PERIOD   3
  ------------------------------------------------------------------------------

     CUMULATIVE VOLUMES      L**3       RATES FOR THIS TIME STEP      L**3/T
     ------------------                 ------------------------

           IN:                                      IN:
           ---                                      ---
             STORAGE =      337973.2188               STORAGE =        1559.4558
       CONSTANT HEAD =           0.0000         CONSTANT HEAD =           0.0000
               WELLS =           0.0000                 WELLS =           0.0000
     HEAD DEP BOUNDS =        4402.6147       HEAD DEP BOUNDS =         139.8016

            TOTAL IN =      342375.8438              TOTAL IN =        1699.2574

          OUT:                                     OUT:
          ----                                     ----
             STORAGE =           0.0000               STORAGE =           0.0000
       CONSTANT HEAD =           0.0000         CONSTANT HEAD =           0.0000
               WELLS =        8500.0000                 WELLS =         500.0000
     HEAD DEP BOUNDS =      333875.9062       HEAD DEP BOUNDS =        1199.2544

           TOTAL OUT =      342375.9062             TOTAL OUT =        1699.2544

            IN - OUT =      -6.2500E-02              IN - OUT =       3.0518E-03

 PERCENT DISCREPANCY =          -0.00     PERCENT DISCREPANCY =           0.00






         TIME SUMMARY AT END OF TIME STEP   17 IN STRESS PERIOD    3
                    SECONDS     MINUTES      HOURS       DAYS        YEARS
                    -----------------------------------------------------------
   TIME STEP LENGTH  86400.      1440.0      24.000     1.00000     2.73785E-03
 STRESS PERIOD TIME 1.46880E+06  24480.      408.00      17.000     4.65435E-02
         TOTAL TIME 1.01952E+07 1.69920E+05  2832.0      118.00     0.32307    
1
 
 SOLVING FOR HEAD 

 OUTPUT CONTROL FOR STRESS PERIOD    3   TIME STEP   18
    SAVE HEAD FOR ALL LAYERS
    SAVE DRAWDOWN FOR ALL LAYERS
    SAVE BUDGET
    PRINT HEAD FOR ALL LAYERS
    PRINT BUDGET
 UBDSV1 SAVING "         STORAGE" ON UNIT  53 AT TIME STEP 18, STRESS PERIOD   3
 UBDSV2 SAVING "   CONSTANT HEAD" ON UNIT  53 AT TIME STEP 18, STRESS PERIOD   3
 UBDSV1 SAVING "FLOW RIGHT FACE " ON UNIT  53 AT TIME STEP 18, STRESS PERIOD   3
 UBDSV1 SAVING "FLOW FRONT FACE " ON UNIT  53 AT TIME STEP 18, STRESS PERIOD   3
1
              HEAD IN LAYER   1 AT END OF TIME STEP  18 IN STRESS PERIOD    3
  ---------------------------------------------------------------------------

            1           2           3           4           5           6           7           8           9          10
 ........................................................................................................................
   1    9.998       9.768       9.467       9.021       8.357       7.407       6.103       4.413       2.358      2.3901E-02
   2    9.998       9.766       9.460       9.004       8.327       7.390       6.097       4.412       2.357      2.3897E-02
   3    9.998       9.760       9.436       8.932       8.189       7.318       6.073       4.405       2.356      2.3884E-02
   4    9.997       9.746       9.374       8.716       7.642       7.098       6.010       4.391       2.353      2.3857E-02
   5    9.997       9.731       9.292       8.308       5.662       6.681       5.926       4.375       2.351      2.3830E-02
   6    9.997       9.746       9.374       8.716       7.642       7.098       6.010       4.391       2.353      2.3857E-02
   7    9.998       9.760       9.436       8.932       8.189       7.318       6.073       4.405       2.356      2.3884E-02
   8    9.998       9.766       9.460       9.004       8.327       7.390       6.097       4.412       2.357      2.3897E-02
   9    9.998       9.768       9.467       9.022       8.359       7.408       6.104       4.414       2.358      2.3901E-02
  10    9.998       9.768       9.469       9.026       8.365       7.412       6.105       4.414       2.358      2.3902E-02

 HEAD WILL BE SAVED ON UNIT   51 AT END OF TIME STEP   18, STRESS PERIOD    3

 DRAWDOWN WILL BE SAVED ON UNIT   52 AT END OF TIME STEP   18, STRESS PERIOD    3
1
  VOLUMETRIC BUDGET FOR ENTIRE MODEL AT END OF TIME STEP   18, STRESS PERIOD   3
  ------------------------------------------------------------------------------

     CUMULATIVE VOLUMES      L**3       RATES FOR THIS TIME STEP      L**3/T
     ------------------                 ------------------------

           IN:                                      IN:
           ---                                      ---
             STORAGE =      339524.1875               STORAGE =        1550.9629
       CONSTANT HEAD =           0.0000         CONSTANT HEAD =           0.0000
               WELLS =           0.0000                 WELLS =           0.0000
     HEAD DEP BOUNDS =        4545.6880       HEAD DEP BOUNDS =         143.0733

            TOTAL IN =      344069.8750              TOTAL IN =        1694.0363

          OUT:                                     OUT:
          ----                                     ----
             STORAGE =           0.0000               STORAGE =           0.0000
       CONSTANT HEAD =           0.0000         CONSTANT HEAD =           0.0000
               WELLS =        9000.0000                 WELLS =         500.0000
     HEAD DEP BOUNDS =      335069.9375       HEAD DEP BOUNDS =        1194.0441

           TOTAL OUT =      344069.9375             TOTAL OUT =        1694.0441

            IN - OUT =      -6.2500E-02              IN - OUT =      -7.8125E-03

 PERCENT DISCREPANCY =          -0.00     PERCENT DISCREPANCY =          -0.00






         TIME SUMMARY AT END OF TIME STEP   18 IN STRESS PERIOD    3
                    SECONDS     MINUTES      HOURS       DAYS        YEARS
                    -----------------------------------------------------------
   TIME STEP LENGTH  86400.      1440.0      24.000     1.00000     2.73785E-03
 STRESS PERIOD TIME 1.55520E+06  25920.      432.00      18.000     4.92813E-02
         TOTAL TIME 1.02816E+07 1.71360E+05  2856.0      119.00     0.32580    
1
 
 SOLVING FOR HEAD 

 OUTPUT CONTROL FOR STRESS PERIOD    3   TIME STEP   19
    SAVE HEAD FOR ALL LAYERS
    SAVE DRAWDOWN FOR ALL LAYERS
    SAVE BUDGET
    PRINT HEAD FOR ALL LAYERS
    PRINT BUDGET
 UBDSV1 SAVING "         STORAGE" ON UNIT  53 AT TIME STEP 19, STRESS PERIOD   3
 UBDSV2 SAVING "   CONSTANT HEAD" ON UNIT  53 AT TIME STEP 19, STRESS PERIOD   3
 UBDSV1 SAVING "FLOW RIGHT FACE " ON UNIT  53 AT TIME STEP 19, STRESS PERIOD   3
 UBDSV1 SAVING "FLOW FRONT FACE " ON UNIT  53 AT TIME STEP 19, STRESS PERIOD   3
1
              HEAD IN LAYER   1 AT END OF TIME STEP  19 IN STRESS PERIOD    3
  ---------------------------------------------------------------------------

            1           2           3           4           5           6           7           8           9          10
 ........................................................................................................................
   1    9.998       9.763       9.458       9.008       8.340       7.387       6.084       4.397       2.348      2.3801E-02
   2    9.998       9.761       9.450       8.988       8.306       7.367       6.076       4.395       2.348      2.3796E-02
   3    9.998       9.754       9.423       8.910       8.159       7.289       6.049       4.388       2.346      2.3781E-02
   4    9.997       9.738       9.356       8.681       7.594       7.057       5.981       4.372       2.343      2.3749E-02
   5    9.997       9.722       9.270       8.264       5.598       6.630       5.892       4.354       2.340      2.3719E-02
   6    9.997       9.738       9.356       8.681       7.594       7.057       5.981       4.372       2.343      2.3749E-02
   7    9.998       9.754       9.423       8.910       8.159       7.289       6.049       4.388       2.346      2.3781E-02
   8    9.998       9.761       9.450       8.988       8.307       7.367       6.076       4.395       2.348      2.3796E-02
   9    9.998       9.764       9.458       9.009       8.341       7.388       6.084       4.397       2.348      2.3802E-02
  10    9.998       9.764       9.460       9.013       8.348       7.393       6.086       4.398       2.348      2.3803E-02

 HEAD WILL BE SAVED ON UNIT   51 AT END OF TIME STEP   19, STRESS PERIOD    3

 DRAWDOWN WILL BE SAVED ON UNIT   52 AT END OF TIME STEP   19, STRESS PERIOD    3
1
  VOLUMETRIC BUDGET FOR ENTIRE MODEL AT END OF TIME STEP   19, STRESS PERIOD   3
  ------------------------------------------------------------------------------

     CUMULATIVE VOLUMES      L**3       RATES FOR THIS TIME STEP      L**3/T
     ------------------                 ------------------------

           IN:                                      IN:
           ---                                      ---
             STORAGE =      341066.6562               STORAGE =        1542.4735
       CONSTANT HEAD =           0.0000         CONSTANT HEAD =           0.0000
               WELLS =           0.0000                 WELLS =           0.0000
     HEAD DEP BOUNDS =        4692.0981       HEAD DEP BOUNDS =         146.4101

            TOTAL IN =      345758.7500              TOTAL IN =        1688.8835

          OUT:                                     OUT:
          ----                                     ----
             STORAGE =           0.0000               STORAGE =           0.0000
       CONSTANT HEAD =           0.0000         CONSTANT HEAD =           0.0000
               WELLS =        9500.0000                 WELLS =         500.0000
     HEAD DEP BOUNDS =      336258.8125       HEAD DEP BOUNDS =        1188.8789

           TOTAL OUT =      345758.8125             TOTAL OUT =        1688.8789

            IN - OUT =      -6.2500E-02              IN - OUT =       4.6387E-03

 PERCENT DISCREPANCY =          -0.00     PERCENT DISCREPANCY =           0.00






         TIME SUMMARY AT END OF TIME STEP   19 IN STRESS PERIOD    3
                    SECONDS     MINUTES      HOURS       DAYS        YEARS
                    -----------------------------------------------------------
   TIME STEP LENGTH  86400.      1440.0      24.000     1.00000     2.73785E-03
 STRESS PERIOD TIME 1.64160E+06  27360.      456.00      19.000     5.20192E-02
         TOTAL TIME 1.03680E+07 1.72800E+05  2880.0      120.00     0.32854    
1
 
 SOLVING FOR HEAD 

 OUTPUT CONTROL FOR STRESS PERIOD    3   TIME STEP   20
    SAVE HEAD FOR ALL LAYERS
    SAVE DRAWDOWN FOR ALL LAYERS
    SAVE BUDGET
    PRINT HEAD FOR ALL LAYERS
    PRINT BUDGET
 UBDSV1 SAVING "         STORAGE" ON UNIT  53 AT TIME STEP 20, STRESS PERIOD   3
 UBDSV2 SAVING "   CONSTANT HEAD" ON UNIT  53 AT TIME STEP 20, STRESS PERIOD   3
 UBDSV1 SAVING "FLOW RIGHT FACE " ON UNIT  53 AT TIME STEP 20, STRESS PERIOD   3
 UBDSV1 SAVING "FLOW FRONT FACE " ON UNIT  53 AT TIME STEP 20, STRESS PERIOD   3
1
              HEAD IN LAYER   1 AT END OF TIME STEP  20 IN STRESS PERIOD    3
  ---------------------------------------------------------------------------

            1           2           3           4           5           6           7           8           9          10
 ........................................................................................................................
   1    9.998       9.759       9.449       8.994       8.322       7.367       6.064       4.381       2.339      2.3703E-02
   2    9.998       9.756       9.440       8.971       8.285       7.345       6.055       4.378       2.338      2.3696E-02
   3    9.998       9.748       9.410       8.887       8.128       7.260       6.025       4.370       2.336      2.3678E-02
   4    9.997       9.731       9.338       8.648       7.548       7.017       5.952       4.352       2.332      2.3641E-02
   5    9.997       9.714       9.248       8.222       5.536       6.581       5.859       4.333       2.329      2.3608E-02
   6    9.997       9.731       9.338       8.648       7.548       7.017       5.952       4.352       2.332      2.3641E-02
   7    9.998       9.748       9.410       8.887       8.128       7.260       6.025       4.370       2.336      2.3678E-02
   8    9.998       9.756       9.440       8.972       8.285       7.345       6.056       4.378       2.338      2.3697E-02
   9    9.998       9.759       9.449       8.995       8.324       7.369       6.065       4.381       2.339      2.3703E-02
  10    9.998       9.760       9.452       9.000       8.332       7.374       6.067       4.382       2.339      2.3705E-02

 HEAD WILL BE SAVED ON UNIT   51 AT END OF TIME STEP   20, STRESS PERIOD    3

 DRAWDOWN WILL BE SAVED ON UNIT   52 AT END OF TIME STEP   20, STRESS PERIOD    3
1
  VOLUMETRIC BUDGET FOR ENTIRE MODEL AT END OF TIME STEP   20, STRESS PERIOD   3
  ------------------------------------------------------------------------------

     CUMULATIVE VOLUMES      L**3       RATES FOR THIS TIME STEP      L**3/T
     ------------------                 ------------------------

           IN:                                      IN:
           ---                                      ---
             STORAGE =      342600.5938               STORAGE =        1533.9470
       CONSTANT HEAD =           0.0000         CONSTANT HEAD =           0.0000
               WELLS =           0.0000                 WELLS =           0.0000
     HEAD DEP BOUNDS =        4841.8945       HEAD DEP BOUNDS =         149.7962

            TOTAL IN =      347442.5000              TOTAL IN =        1683.7433

          OUT:                                     OUT:
          ----                                     ----
             STORAGE =           0.0000               STORAGE =           0.0000
       CONSTANT HEAD =           0.0000         CONSTANT HEAD =           0.0000
               WELLS =       10000.0000                 WELLS =         500.0000
     HEAD DEP BOUNDS =      337442.5625       HEAD DEP BOUNDS =        1183.7484

           TOTAL OUT =      347442.5625             TOTAL OUT =        1683.7484

            IN - OUT =      -6.2500E-02              IN - OUT =      -5.1270E-03

 PERCENT DISCREPANCY =          -0.00     PERCENT DISCREPANCY =          -0.00






         TIME SUMMARY AT END OF TIME STEP   20 IN STRESS PERIOD    3
                    SECONDS     MINUTES      HOURS       DAYS        YEARS
                    -----------------------------------------------------------
   TIME STEP LENGTH  86400.      1440.0      24.000     1.00000     2.73785E-03
 STRESS PERIOD TIME 1.72800E+06  28800.      480.00      20.000     5.47570E-02
         TOTAL TIME 1.04544E+07 1.74240E+05  2904.0      121.00     0.33128    
1
 
 SOLVING FOR HEAD 

 OUTPUT CONTROL FOR STRESS PERIOD    3   TIME STEP   21
    SAVE HEAD FOR ALL LAYERS
    SAVE DRAWDOWN FOR ALL LAYERS
    SAVE BUDGET
    PRINT HEAD FOR ALL LAYERS
    PRINT BUDGET
 UBDSV1 SAVING "         STORAGE" ON UNIT  53 AT TIME STEP 21, STRESS PERIOD   3
 UBDSV2 SAVING "   CONSTANT HEAD" ON UNIT  53 AT TIME STEP 21, STRESS PERIOD   3
 UBDSV1 SAVING "FLOW RIGHT FACE " ON UNIT  53 AT TIME STEP 21, STRESS PERIOD   3
 UBDSV1 SAVING "FLOW FRONT FACE " ON UNIT  53 AT TIME STEP 21, STRESS PERIOD   3
1
              HEAD IN LAYER   1 AT END OF TIME STEP  21 IN STRESS PERIOD    3
  ---------------------------------------------------------------------------

            1           2           3           4           5           6           7           8           9          10
 ........................................................................................................................
   1    9.998       9.755       9.440       8.980       8.304       7.347       6.045       4.365       2.329      2.3605E-02
   2    9.998       9.752       9.430       8.955       8.264       7.323       6.035       4.362       2.328      2.3598E-02
   3    9.997       9.742       9.396       8.864       8.098       7.231       6.001       4.352       2.326      2.3576E-02
   4    9.997       9.723       9.319       8.614       7.502       6.977       5.923       4.333       2.322      2.3534E-02
   5    9.997       9.705       9.226       8.180       5.478       6.533       5.826       4.313       2.318      2.3497E-02
   6    9.997       9.723       9.319       8.614       7.502       6.977       5.923       4.333       2.322      2.3534E-02
   7    9.997       9.742       9.396       8.865       8.098       7.231       6.001       4.352       2.326      2.3576E-02
   8    9.998       9.752       9.430       8.955       8.264       7.323       6.035       4.362       2.328      2.3598E-02
   9    9.998       9.755       9.440       8.981       8.306       7.349       6.045       4.365       2.329      2.3606E-02
  10    9.998       9.756       9.443       8.988       8.315       7.355       6.048       4.366       2.329      2.3608E-02

 HEAD WILL BE SAVED ON UNIT   51 AT END OF TIME STEP   21, STRESS PERIOD    3

 DRAWDOWN WILL BE SAVED ON UNIT   52 AT END OF TIME STEP   21, STRESS PERIOD    3
1
  VOLUMETRIC BUDGET FOR ENTIRE MODEL AT END OF TIME STEP   21, STRESS PERIOD   3
  ------------------------------------------------------------------------------

     CUMULATIVE VOLUMES      L**3       RATES FOR THIS TIME STEP      L**3/T
     ------------------                 ------------------------

           IN:                                      IN:
           ---                                      ---
             STORAGE =      344126.0000               STORAGE =        1525.4026
       CONSTANT HEAD =           0.0000         CONSTANT HEAD =           0.0000
               WELLS =           0.0000                 WELLS =           0.0000
     HEAD DEP BOUNDS =        4995.1567       HEAD DEP BOUNDS =         153.2623

            TOTAL IN =      349121.1562              TOTAL IN =        1678.6649

          OUT:                                     OUT:
          ----                                     ----
             STORAGE =           0.0000               STORAGE =           0.0000
       CONSTANT HEAD =           0.0000         CONSTANT HEAD =           0.0000
               WELLS =       10500.0000                 WELLS =         500.0000
     HEAD DEP BOUNDS =      338621.2188       HEAD DEP BOUNDS =        1178.6560

           TOTAL OUT =      349121.2188             TOTAL OUT =        1678.6560

            IN - OUT =      -6.2500E-02              IN - OUT =       8.9111E-03

 PERCENT DISCREPANCY =          -0.00     PERCENT DISCREPANCY =           0.00






         TIME SUMMARY AT END OF TIME STEP   21 IN STRESS PERIOD    3
                    SECONDS     MINUTES      HOURS       DAYS        YEARS
                    -----------------------------------------------------------
   TIME STEP LENGTH  86400.      1440.0      24.000     1.00000     2.73785E-03
 STRESS PERIOD TIME 1.81440E+06  30240.      504.00      21.000     5.74949E-02
         TOTAL TIME 1.05408E+07 1.75680E+05  2928.0      122.00     0.33402    
1
 
 SOLVING FOR HEAD 

 OUTPUT CONTROL FOR STRESS PERIOD    3   TIME STEP   22
    SAVE HEAD FOR ALL LAYERS
    SAVE DRAWDOWN FOR ALL LAYERS
    SAVE BUDGET
    PRINT HEAD FOR ALL LAYERS
    PRINT BUDGET
 UBDSV1 SAVING "         STORAGE" ON UNIT  53 AT TIME STEP 22, STRESS PERIOD   3
 UBDSV2 SAVING "   CONSTANT HEAD" ON UNIT  53 AT TIME STEP 22, STRESS PERIOD   3
 UBDSV1 SAVING "FLOW RIGHT FACE " ON UNIT  53 AT TIME STEP 22, STRESS PERIOD   3
 UBDSV1 SAVING "FLOW FRONT FACE " ON UNIT  53 AT TIME STEP 22, STRESS PERIOD   3
1
              HEAD IN LAYER   1 AT END OF TIME STEP  22 IN STRESS PERIOD    3
  ---------------------------------------------------------------------------

            1           2           3           4           5           6           7           8           9          10
 ........................................................................................................................
   1    9.998       9.750       9.431       8.966       8.286       7.327       6.025       4.349       2.320      2.3509E-02
   2    9.998       9.747       9.419       8.939       8.243       7.300       6.014       4.346       2.319      2.3500E-02
   3    9.997       9.736       9.383       8.842       8.069       7.202       5.977       4.335       2.316      2.3474E-02
   4    9.997       9.716       9.301       8.581       7.458       6.937       5.894       4.313       2.312      2.3427E-02
   5    9.997       9.696       9.205       8.140       5.421       6.485       5.794       4.292       2.308      2.3387E-02
   6    9.997       9.716       9.301       8.581       7.458       6.937       5.894       4.313       2.312      2.3427E-02
   7    9.997       9.736       9.383       8.842       8.069       7.202       5.977       4.335       2.316      2.3475E-02
   8    9.998       9.747       9.419       8.939       8.243       7.300       6.014       4.346       2.319      2.3500E-02
   9    9.998       9.751       9.432       8.968       8.288       7.329       6.026       4.349       2.320      2.3509E-02
  10    9.998       9.752       9.435       8.975       8.298       7.336       6.029       4.350       2.320      2.3512E-02

 HEAD WILL BE SAVED ON UNIT   51 AT END OF TIME STEP   22, STRESS PERIOD    3

 DRAWDOWN WILL BE SAVED ON UNIT   52 AT END OF TIME STEP   22, STRESS PERIOD    3
1
  VOLUMETRIC BUDGET FOR ENTIRE MODEL AT END OF TIME STEP   22, STRESS PERIOD   3
  ------------------------------------------------------------------------------

     CUMULATIVE VOLUMES      L**3       RATES FOR THIS TIME STEP      L**3/T
     ------------------                 ------------------------

           IN:                                      IN:
           ---                                      ---
             STORAGE =      345642.8438               STORAGE =        1516.8464
       CONSTANT HEAD =           0.0000         CONSTANT HEAD =           0.0000
               WELLS =           0.0000                 WELLS =           0.0000
     HEAD DEP BOUNDS =        5151.9165       HEAD DEP BOUNDS =         156.7596

            TOTAL IN =      350794.7500              TOTAL IN =        1673.6060

          OUT:                                     OUT:
          ----                                     ----
             STORAGE =           0.0000               STORAGE =           0.0000
       CONSTANT HEAD =           0.0000         CONSTANT HEAD =           0.0000
               WELLS =       11000.0000                 WELLS =         500.0000
     HEAD DEP BOUNDS =      339794.8125       HEAD DEP BOUNDS =        1173.6002

           TOTAL OUT =      350794.8125             TOTAL OUT =        1673.6002

            IN - OUT =      -6.2500E-02              IN - OUT =       5.7373E-03

 PERCENT DISCREPANCY =          -0.00     PERCENT DISCREPANCY =           0.00






         TIME SUMMARY AT END OF TIME STEP   22 IN STRESS PERIOD    3
                    SECONDS     MINUTES      HOURS       DAYS        YEARS
                    -----------------------------------------------------------
   TIME STEP LENGTH  86400.      1440.0      24.000     1.00000     2.73785E-03
 STRESS PERIOD TIME 1.90080E+06  31680.      528.00      22.000     6.02327E-02
         TOTAL TIME 1.06272E+07 1.77120E+05  2952.0      123.00     0.33676    
1
 
 SOLVING FOR HEAD 

 OUTPUT CONTROL FOR STRESS PERIOD    3   TIME STEP   23
    SAVE HEAD FOR ALL LAYERS
    SAVE DRAWDOWN FOR ALL LAYERS
    SAVE BUDGET
    PRINT HEAD FOR ALL LAYERS
    PRINT BUDGET
 UBDSV1 SAVING "         STORAGE" ON UNIT  53 AT TIME STEP 23, STRESS PERIOD   3
 UBDSV2 SAVING "   CONSTANT HEAD" ON UNIT  53 AT TIME STEP 23, STRESS PERIOD   3
 UBDSV1 SAVING "FLOW RIGHT FACE " ON UNIT  53 AT TIME STEP 23, STRESS PERIOD   3
 UBDSV1 SAVING "FLOW FRONT FACE " ON UNIT  53 AT TIME STEP 23, STRESS PERIOD   3
1
              HEAD IN LAYER   1 AT END OF TIME STEP  23 IN STRESS PERIOD    3
  ---------------------------------------------------------------------------

            1           2           3           4           5           6           7           8           9          10
 ........................................................................................................................
   1    9.997       9.746       9.421       8.952       8.268       7.307       6.006       4.333       2.311      2.3413E-02
   2    9.997       9.742       9.409       8.922       8.221       7.278       5.994       4.329       2.310      2.3403E-02
   3    9.997       9.730       9.369       8.819       8.039       7.173       5.954       4.317       2.307      2.3374E-02
   4    9.997       9.708       9.282       8.548       7.415       6.898       5.865       4.293       2.301      2.3320E-02
   5    9.997       9.687       9.183       8.101       5.367       6.439       5.761       4.271       2.297      2.3277E-02
   6    9.997       9.708       9.282       8.548       7.415       6.898       5.865       4.293       2.301      2.3320E-02
   7    9.997       9.730       9.369       8.819       8.039       7.174       5.954       4.317       2.307      2.3374E-02
   8    9.997       9.742       9.409       8.923       8.222       7.278       5.994       4.329       2.310      2.3403E-02
   9    9.997       9.746       9.422       8.954       8.271       7.310       6.007       4.334       2.311      2.3414E-02
  10    9.998       9.747       9.426       8.962       8.282       7.317       6.011       4.335       2.311      2.3417E-02

 HEAD WILL BE SAVED ON UNIT   51 AT END OF TIME STEP   23, STRESS PERIOD    3

 DRAWDOWN WILL BE SAVED ON UNIT   52 AT END OF TIME STEP   23, STRESS PERIOD    3
1
  VOLUMETRIC BUDGET FOR ENTIRE MODEL AT END OF TIME STEP   23, STRESS PERIOD   3
  ------------------------------------------------------------------------------

     CUMULATIVE VOLUMES      L**3       RATES FOR THIS TIME STEP      L**3/T
     ------------------                 ------------------------

           IN:                                      IN:
           ---                                      ---
             STORAGE =      347151.0938               STORAGE =        1508.2594
       CONSTANT HEAD =           0.0000         CONSTANT HEAD =           0.0000
               WELLS =           0.0000                 WELLS =           0.0000
     HEAD DEP BOUNDS =        5312.2148       HEAD DEP BOUNDS =         160.2983

            TOTAL IN =      352463.3125              TOTAL IN =        1668.5577

          OUT:                                     OUT:
          ----                                     ----
             STORAGE =           0.0000               STORAGE =           0.0000
       CONSTANT HEAD =           0.0000         CONSTANT HEAD =           0.0000
               WELLS =       11500.0000                 WELLS =         500.0000
     HEAD DEP BOUNDS =      340963.3750       HEAD DEP BOUNDS =        1168.5710

           TOTAL OUT =      352463.3750             TOTAL OUT =        1668.5710

            IN - OUT =      -6.2500E-02              IN - OUT =      -1.3306E-02

 PERCENT DISCREPANCY =          -0.00     PERCENT DISCREPANCY =          -0.00






         TIME SUMMARY AT END OF TIME STEP   23 IN STRESS PERIOD    3
                    SECONDS     MINUTES      HOURS       DAYS        YEARS
                    -----------------------------------------------------------
   TIME STEP LENGTH  86400.      1440.0      24.000     1.00000     2.73785E-03
 STRESS PERIOD TIME 1.98720E+06  33120.      552.00      23.000     6.29706E-02
         TOTAL TIME 1.07136E+07 1.78560E+05  2976.0      124.00     0.33949    
1
 
 SOLVING FOR HEAD 

 OUTPUT CONTROL FOR STRESS PERIOD    3   TIME STEP   24
    SAVE HEAD FOR ALL LAYERS
    SAVE DRAWDOWN FOR ALL LAYERS
    SAVE BUDGET
    PRINT HEAD FOR ALL LAYERS
    PRINT BUDGET
 UBDSV1 SAVING "         STORAGE" ON UNIT  53 AT TIME STEP 24, STRESS PERIOD   3
 UBDSV2 SAVING "   CONSTANT HEAD" ON UNIT  53 AT TIME STEP 24, STRESS PERIOD   3
 UBDSV1 SAVING "FLOW RIGHT FACE " ON UNIT  53 AT TIME STEP 24, STRESS PERIOD   3
 UBDSV1 SAVING "FLOW FRONT FACE " ON UNIT  53 AT TIME STEP 24, STRESS PERIOD   3
1
              HEAD IN LAYER   1 AT END OF TIME STEP  24 IN STRESS PERIOD    3
  ---------------------------------------------------------------------------

            1           2           3           4           5           6           7           8           9          10
 ........................................................................................................................
   1    9.997       9.741       9.412       8.938       8.249       7.287       5.987       4.318       2.301      2.3319E-02
   2    9.997       9.737       9.398       8.905       8.200       7.255       5.973       4.313       2.300      2.3306E-02
   3    9.997       9.724       9.355       8.796       8.009       7.145       5.930       4.300       2.297      2.3273E-02
   4    9.997       9.700       9.263       8.516       7.373       6.860       5.836       4.274       2.291      2.3214E-02
   5    9.997       9.678       9.161       8.062       5.315       6.395       5.729       4.250       2.286      2.3167E-02
   6    9.997       9.700       9.263       8.516       7.373       6.860       5.836       4.274       2.291      2.3214E-02
   7    9.997       9.724       9.355       8.796       8.009       7.145       5.930       4.300       2.297      2.3273E-02
   8    9.997       9.737       9.398       8.906       8.201       7.256       5.973       4.313       2.300      2.3307E-02
   9    9.997       9.742       9.413       8.940       8.253       7.290       5.988       4.318       2.302      2.3320E-02
  10    9.997       9.743       9.418       8.949       8.265       7.299       5.992       4.320       2.302      2.3324E-02

 HEAD WILL BE SAVED ON UNIT   51 AT END OF TIME STEP   24, STRESS PERIOD    3

 DRAWDOWN WILL BE SAVED ON UNIT   52 AT END OF TIME STEP   24, STRESS PERIOD    3
1
  VOLUMETRIC BUDGET FOR ENTIRE MODEL AT END OF TIME STEP   24, STRESS PERIOD   3
  ------------------------------------------------------------------------------

     CUMULATIVE VOLUMES      L**3       RATES FOR THIS TIME STEP      L**3/T
     ------------------                 ------------------------

           IN:                                      IN:
           ---                                      ---
             STORAGE =      348650.7812               STORAGE =        1499.6855
       CONSTANT HEAD =           0.0000         CONSTANT HEAD =           0.0000
               WELLS =           0.0000                 WELLS =           0.0000
     HEAD DEP BOUNDS =        5476.1240       HEAD DEP BOUNDS =         163.9091

            TOTAL IN =      354126.9062              TOTAL IN =        1663.5946

          OUT:                                     OUT:
          ----                                     ----
             STORAGE =           0.0000               STORAGE =           0.0000
       CONSTANT HEAD =           0.0000         CONSTANT HEAD =           0.0000
               WELLS =       12000.0000                 WELLS =         500.0000
     HEAD DEP BOUNDS =      342126.9688       HEAD DEP BOUNDS =        1163.5804

           TOTAL OUT =      354126.9688             TOTAL OUT =        1663.5804

            IN - OUT =      -6.2500E-02              IN - OUT =       1.4160E-02

 PERCENT DISCREPANCY =          -0.00     PERCENT DISCREPANCY =           0.00






         TIME SUMMARY AT END OF TIME STEP   24 IN STRESS PERIOD    3
                    SECONDS     MINUTES      HOURS       DAYS        YEARS
                    -----------------------------------------------------------
   TIME STEP LENGTH  86400.      1440.0      24.000     1.00000     2.73785E-03
 STRESS PERIOD TIME 2.07360E+06  34560.      576.00      24.000     6.57084E-02
         TOTAL TIME 1.08000E+07 1.80000E+05  3000.0      125.00     0.34223    
1
 
 SOLVING FOR HEAD 

 OUTPUT CONTROL FOR STRESS PERIOD    3   TIME STEP   25
    SAVE HEAD FOR ALL LAYERS
    SAVE DRAWDOWN FOR ALL LAYERS
    SAVE BUDGET
    PRINT HEAD FOR ALL LAYERS
    PRINT BUDGET
 UBDSV1 SAVING "         STORAGE" ON UNIT  53 AT TIME STEP 25, STRESS PERIOD   3
 UBDSV2 SAVING "   CONSTANT HEAD" ON UNIT  53 AT TIME STEP 25, STRESS PERIOD   3
 UBDSV1 SAVING "FLOW RIGHT FACE " ON UNIT  53 AT TIME STEP 25, STRESS PERIOD   3
 UBDSV1 SAVING "FLOW FRONT FACE " ON UNIT  53 AT TIME STEP 25, STRESS PERIOD   3
1
              HEAD IN LAYER   1 AT END OF TIME STEP  25 IN STRESS PERIOD    3
  ---------------------------------------------------------------------------

            1           2           3           4           5           6           7           8           9          10
 ........................................................................................................................
   1    9.997       9.737       9.403       8.923       8.231       7.268       5.968       4.302       2.292      2.3225E-02
   2    9.997       9.732       9.387       8.889       8.178       7.233       5.952       4.297       2.291      2.3211E-02
   3    9.997       9.717       9.341       8.773       7.980       7.116       5.906       4.282       2.287      2.3173E-02
   4    9.997       9.692       9.245       8.484       7.331       6.822       5.807       4.254       2.281      2.3108E-02
   5    9.997       9.669       9.140       8.025       5.264       6.351       5.697       4.230       2.276      2.3057E-02
   6    9.997       9.692       9.245       8.484       7.331       6.822       5.807       4.254       2.281      2.3108E-02
   7    9.997       9.718       9.341       8.773       7.980       7.116       5.906       4.282       2.287      2.3173E-02
   8    9.997       9.732       9.387       8.889       8.179       7.233       5.953       4.297       2.291      2.3211E-02
   9    9.997       9.737       9.404       8.926       8.235       7.270       5.969       4.303       2.293      2.3227E-02
  10    9.997       9.739       9.409       8.936       8.249       7.280       5.974       4.304       2.293      2.3231E-02

 HEAD WILL BE SAVED ON UNIT   51 AT END OF TIME STEP   25, STRESS PERIOD    3

 DRAWDOWN WILL BE SAVED ON UNIT   52 AT END OF TIME STEP   25, STRESS PERIOD    3
1
  VOLUMETRIC BUDGET FOR ENTIRE MODEL AT END OF TIME STEP   25, STRESS PERIOD   3
  ------------------------------------------------------------------------------

     CUMULATIVE VOLUMES      L**3       RATES FOR THIS TIME STEP      L**3/T
     ------------------                 ------------------------

           IN:                                      IN:
           ---                                      ---
             STORAGE =      350141.8438               STORAGE =        1491.0773
       CONSTANT HEAD =           0.0000         CONSTANT HEAD =           0.0000
               WELLS =           0.0000                 WELLS =           0.0000
     HEAD DEP BOUNDS =        5643.6602       HEAD DEP BOUNDS =         167.5360

            TOTAL IN =      355785.5000              TOTAL IN =        1658.6133

          OUT:                                     OUT:
          ----                                     ----
             STORAGE =           0.0000               STORAGE =           0.0000
       CONSTANT HEAD =           0.0000         CONSTANT HEAD =           0.0000
               WELLS =       12500.0000                 WELLS =         500.0000
     HEAD DEP BOUNDS =      343285.5938       HEAD DEP BOUNDS =        1158.6183

           TOTAL OUT =      355785.5938             TOTAL OUT =        1658.6183

            IN - OUT =      -9.3750E-02              IN - OUT =      -5.0049E-03

 PERCENT DISCREPANCY =          -0.00     PERCENT DISCREPANCY =          -0.00






         TIME SUMMARY AT END OF TIME STEP   25 IN STRESS PERIOD    3
                    SECONDS     MINUTES      HOURS       DAYS        YEARS
                    -----------------------------------------------------------
   TIME STEP LENGTH  86400.      1440.0      24.000     1.00000     2.73785E-03
 STRESS PERIOD TIME 2.16000E+06  36000.      600.00      25.000     6.84463E-02
         TOTAL TIME 1.08864E+07 1.81440E+05  3024.0      126.00     0.34497    
1
 
 SOLVING FOR HEAD 

 OUTPUT CONTROL FOR STRESS PERIOD    3   TIME STEP   26
    SAVE HEAD FOR ALL LAYERS
    SAVE DRAWDOWN FOR ALL LAYERS
    SAVE BUDGET
    PRINT HEAD FOR ALL LAYERS
    PRINT BUDGET
 UBDSV1 SAVING "         STORAGE" ON UNIT  53 AT TIME STEP 26, STRESS PERIOD   3
 UBDSV2 SAVING "   CONSTANT HEAD" ON UNIT  53 AT TIME STEP 26, STRESS PERIOD   3
 UBDSV1 SAVING "FLOW RIGHT FACE " ON UNIT  53 AT TIME STEP 26, STRESS PERIOD   3
 UBDSV1 SAVING "FLOW FRONT FACE " ON UNIT  53 AT TIME STEP 26, STRESS PERIOD   3
1
              HEAD IN LAYER   1 AT END OF TIME STEP  26 IN STRESS PERIOD    3
  ---------------------------------------------------------------------------

            1           2           3           4           5           6           7           8           9          10
 ........................................................................................................................
   1    9.997       9.732       9.393       8.909       8.213       7.248       5.949       4.287       2.284      2.3132E-02
   2    9.997       9.726       9.376       8.872       8.157       7.210       5.932       4.281       2.282      2.3116E-02
   3    9.997       9.711       9.327       8.750       7.951       7.087       5.882       4.265       2.278      2.3074E-02
   4    9.997       9.683       9.226       8.453       7.291       6.784       5.778       4.235       2.271      2.3002E-02
   5    9.997       9.660       9.118       7.988       5.216       6.308       5.666       4.209       2.265      2.2947E-02
   6    9.997       9.683       9.226       8.453       7.291       6.784       5.778       4.235       2.271      2.3002E-02
   7    9.997       9.711       9.327       8.750       7.951       7.087       5.882       4.265       2.278      2.3074E-02
   8    9.997       9.726       9.377       8.872       8.158       7.211       5.932       4.281       2.282      2.3117E-02
   9    9.997       9.733       9.395       8.913       8.218       7.251       5.951       4.287       2.284      2.3134E-02
  10    9.997       9.735       9.400       8.923       8.232       7.262       5.956       4.289       2.284      2.3140E-02

 HEAD WILL BE SAVED ON UNIT   51 AT END OF TIME STEP   26, STRESS PERIOD    3

 DRAWDOWN WILL BE SAVED ON UNIT   52 AT END OF TIME STEP   26, STRESS PERIOD    3
1
  VOLUMETRIC BUDGET FOR ENTIRE MODEL AT END OF TIME STEP   26, STRESS PERIOD   3
  ------------------------------------------------------------------------------

     CUMULATIVE VOLUMES      L**3       RATES FOR THIS TIME STEP      L**3/T
     ------------------                 ------------------------

           IN:                                      IN:
           ---                                      ---
             STORAGE =      351624.3125               STORAGE =        1482.4680
       CONSTANT HEAD =           0.0000         CONSTANT HEAD =           0.0000
               WELLS =           0.0000                 WELLS =           0.0000
     HEAD DEP BOUNDS =        5814.8633       HEAD DEP BOUNDS =         171.2032

            TOTAL IN =      357439.1875              TOTAL IN =        1653.6711

          OUT:                                     OUT:
          ----                                     ----
             STORAGE =           0.0000               STORAGE =           0.0000
       CONSTANT HEAD =           0.0000         CONSTANT HEAD =           0.0000
               WELLS =       13000.0000                 WELLS =         500.0000
     HEAD DEP BOUNDS =      344439.2812       HEAD DEP BOUNDS =        1153.6841

           TOTAL OUT =      357439.2812             TOTAL OUT =        1653.6841

            IN - OUT =      -9.3750E-02              IN - OUT =      -1.2939E-02

 PERCENT DISCREPANCY =          -0.00     PERCENT DISCREPANCY =          -0.00






         TIME SUMMARY AT END OF TIME STEP   26 IN STRESS PERIOD    3
                    SECONDS     MINUTES      HOURS       DAYS        YEARS
                    -----------------------------------------------------------
   TIME STEP LENGTH  86400.      1440.0      24.000     1.00000     2.73785E-03
 STRESS PERIOD TIME 2.24640E+06  37440.      624.00      26.000     7.11841E-02
         TOTAL TIME 1.09728E+07 1.82880E+05  3048.0      127.00     0.34771    
1
 
 SOLVING FOR HEAD 

 OUTPUT CONTROL FOR STRESS PERIOD    3   TIME STEP   27
    SAVE HEAD FOR ALL LAYERS
    SAVE DRAWDOWN FOR ALL LAYERS
    SAVE BUDGET
    PRINT HEAD FOR ALL LAYERS
    PRINT BUDGET
 UBDSV1 SAVING "         STORAGE" ON UNIT  53 AT TIME STEP 27, STRESS PERIOD   3
 UBDSV2 SAVING "   CONSTANT HEAD" ON UNIT  53 AT TIME STEP 27, STRESS PERIOD   3
 UBDSV1 SAVING "FLOW RIGHT FACE " ON UNIT  53 AT TIME STEP 27, STRESS PERIOD   3
 UBDSV1 SAVING "FLOW FRONT FACE " ON UNIT  53 AT TIME STEP 27, STRESS PERIOD   3
1
              HEAD IN LAYER   1 AT END OF TIME STEP  27 IN STRESS PERIOD    3
  ---------------------------------------------------------------------------

            1           2           3           4           5           6           7           8           9          10
 ........................................................................................................................
   1    9.997       9.727       9.384       8.895       8.195       7.228       5.930       4.271       2.275      2.3040E-02
   2    9.997       9.721       9.365       8.855       8.135       7.187       5.911       4.265       2.273      2.3022E-02
   3    9.997       9.704       9.312       8.727       7.922       7.059       5.858       4.247       2.268      2.2974E-02
   4    9.997       9.675       9.207       8.422       7.251       6.747       5.750       4.215       2.260      2.2896E-02
   5    9.997       9.651       9.097       7.952       5.168       6.266       5.635       4.189       2.255      2.2838E-02
   6    9.997       9.675       9.207       8.422       7.252       6.747       5.750       4.215       2.260      2.2896E-02
   7    9.997       9.704       9.312       8.727       7.922       7.059       5.858       4.247       2.268      2.2975E-02
   8    9.997       9.721       9.366       8.855       8.137       7.188       5.912       4.265       2.273      2.3023E-02
   9    9.997       9.728       9.386       8.899       8.200       7.232       5.932       4.272       2.275      2.3043E-02
  10    9.997       9.730       9.392       8.910       8.216       7.243       5.938       4.274       2.276      2.3049E-02

 HEAD WILL BE SAVED ON UNIT   51 AT END OF TIME STEP   27, STRESS PERIOD    3

 DRAWDOWN WILL BE SAVED ON UNIT   52 AT END OF TIME STEP   27, STRESS PERIOD    3
1
  VOLUMETRIC BUDGET FOR ENTIRE MODEL AT END OF TIME STEP   27, STRESS PERIOD   3
  ------------------------------------------------------------------------------

     CUMULATIVE VOLUMES      L**3       RATES FOR THIS TIME STEP      L**3/T
     ------------------                 ------------------------

           IN:                                      IN:
           ---                                      ---
             STORAGE =      353098.1562               STORAGE =        1473.8497
       CONSTANT HEAD =           0.0000         CONSTANT HEAD =           0.0000
               WELLS =           0.0000                 WELLS =           0.0000
     HEAD DEP BOUNDS =        5989.7910       HEAD DEP BOUNDS =         174.9275

            TOTAL IN =      359087.9375              TOTAL IN =        1648.7772

          OUT:                                     OUT:
          ----                                     ----
             STORAGE =           0.0000               STORAGE =           0.0000
       CONSTANT HEAD =           0.0000         CONSTANT HEAD =           0.0000
               WELLS =       13500.0000                 WELLS =         500.0000
     HEAD DEP BOUNDS =      345588.0625       HEAD DEP BOUNDS =        1148.7808

           TOTAL OUT =      359088.0625             TOTAL OUT =        1648.7808

            IN - OUT =          -0.1250              IN - OUT =      -3.5400E-03

 PERCENT DISCREPANCY =          -0.00     PERCENT DISCREPANCY =          -0.00






         TIME SUMMARY AT END OF TIME STEP   27 IN STRESS PERIOD    3
                    SECONDS     MINUTES      HOURS       DAYS        YEARS
                    -----------------------------------------------------------
   TIME STEP LENGTH  86400.      1440.0      24.000     1.00000     2.73785E-03
 STRESS PERIOD TIME 2.33280E+06  38880.      648.00      27.000     7.39220E-02
         TOTAL TIME 1.10592E+07 1.84320E+05  3072.0      128.00     0.35044    
1
 
 SOLVING FOR HEAD 

 OUTPUT CONTROL FOR STRESS PERIOD    3   TIME STEP   28
    SAVE HEAD FOR ALL LAYERS
    SAVE DRAWDOWN FOR ALL LAYERS
    SAVE BUDGET
    PRINT HEAD FOR ALL LAYERS
    PRINT BUDGET
 UBDSV1 SAVING "         STORAGE" ON UNIT  53 AT TIME STEP 28, STRESS PERIOD   3
 UBDSV2 SAVING "   CONSTANT HEAD" ON UNIT  53 AT TIME STEP 28, STRESS PERIOD   3
 UBDSV1 SAVING "FLOW RIGHT FACE " ON UNIT  53 AT TIME STEP 28, STRESS PERIOD   3
 UBDSV1 SAVING "FLOW FRONT FACE " ON UNIT  53 AT TIME STEP 28, STRESS PERIOD   3
1
              HEAD IN LAYER   1 AT END OF TIME STEP  28 IN STRESS PERIOD    3
  ---------------------------------------------------------------------------

            1           2           3           4           5           6           7           8           9          10
 ........................................................................................................................
   1    9.997       9.723       9.374       8.880       8.176       7.208       5.911       4.256       2.266      2.2949E-02
   2    9.997       9.716       9.354       8.838       8.114       7.165       5.891       4.249       2.264      2.2928E-02
   3    9.997       9.698       9.298       8.704       7.893       7.030       5.834       4.230       2.259      2.2876E-02
   4    9.997       9.667       9.189       8.391       7.213       6.711       5.721       4.196       2.250      2.2791E-02
   5    9.996       9.641       9.076       7.917       5.122       6.225       5.604       4.168       2.244      2.2729E-02
   6    9.997       9.667       9.189       8.391       7.213       6.711       5.721       4.196       2.250      2.2791E-02
   7    9.997       9.698       9.298       8.705       7.894       7.031       5.834       4.230       2.259      2.2876E-02
   8    9.997       9.716       9.355       8.839       8.115       7.166       5.891       4.249       2.264      2.2929E-02
   9    9.997       9.724       9.376       8.885       8.182       7.212       5.913       4.257       2.266      2.2952E-02
  10    9.997       9.726       9.383       8.898       8.200       7.225       5.920       4.260       2.267      2.2960E-02

 HEAD WILL BE SAVED ON UNIT   51 AT END OF TIME STEP   28, STRESS PERIOD    3

 DRAWDOWN WILL BE SAVED ON UNIT   52 AT END OF TIME STEP   28, STRESS PERIOD    3
1
  VOLUMETRIC BUDGET FOR ENTIRE MODEL AT END OF TIME STEP   28, STRESS PERIOD   3
  ------------------------------------------------------------------------------

     CUMULATIVE VOLUMES      L**3       RATES FOR THIS TIME STEP      L**3/T
     ------------------                 ------------------------

           IN:                                      IN:
           ---                                      ---
             STORAGE =      354563.3750               STORAGE =        1465.2217
       CONSTANT HEAD =           0.0000         CONSTANT HEAD =           0.0000
               WELLS =           0.0000                 WELLS =           0.0000
     HEAD DEP BOUNDS =        6168.4712       HEAD DEP BOUNDS =         178.6800

            TOTAL IN =      360731.8438              TOTAL IN =        1643.9017

          OUT:                                     OUT:
          ----                                     ----
             STORAGE =           0.0000               STORAGE =           0.0000
       CONSTANT HEAD =           0.0000         CONSTANT HEAD =           0.0000
               WELLS =       14000.0000                 WELLS =         500.0000
     HEAD DEP BOUNDS =      346731.9688       HEAD DEP BOUNDS =        1143.9030

           TOTAL OUT =      360731.9688             TOTAL OUT =        1643.9030

            IN - OUT =          -0.1250              IN - OUT =      -1.2207E-03

 PERCENT DISCREPANCY =          -0.00     PERCENT DISCREPANCY =          -0.00






         TIME SUMMARY AT END OF TIME STEP   28 IN STRESS PERIOD    3
                    SECONDS     MINUTES      HOURS       DAYS        YEARS
                    -----------------------------------------------------------
   TIME STEP LENGTH  86400.      1440.0      24.000     1.00000     2.73785E-03
 STRESS PERIOD TIME 2.41920E+06  40320.      672.00      28.000     7.66598E-02
         TOTAL TIME 1.11456E+07 1.85760E+05  3096.0      129.00     0.35318    
1
 
 SOLVING FOR HEAD 

 OUTPUT CONTROL FOR STRESS PERIOD    3   TIME STEP   29
    SAVE HEAD FOR ALL LAYERS
    SAVE DRAWDOWN FOR ALL LAYERS
    SAVE BUDGET
    PRINT HEAD FOR ALL LAYERS
    PRINT BUDGET
 UBDSV1 SAVING "         STORAGE" ON UNIT  53 AT TIME STEP 29, STRESS PERIOD   3
 UBDSV2 SAVING "   CONSTANT HEAD" ON UNIT  53 AT TIME STEP 29, STRESS PERIOD   3
 UBDSV1 SAVING "FLOW RIGHT FACE " ON UNIT  53 AT TIME STEP 29, STRESS PERIOD   3
 UBDSV1 SAVING "FLOW FRONT FACE " ON UNIT  53 AT TIME STEP 29, STRESS PERIOD   3
1
              HEAD IN LAYER   1 AT END OF TIME STEP  29 IN STRESS PERIOD    3
  ---------------------------------------------------------------------------

            1           2           3           4           5           6           7           8           9          10
 ........................................................................................................................
   1    9.997       9.718       9.364       8.866       8.158       7.188       5.892       4.241       2.257      2.2859E-02
   2    9.997       9.710       9.343       8.820       8.092       7.142       5.870       4.233       2.255      2.2836E-02
   3    9.997       9.691       9.284       8.682       7.865       7.002       5.810       4.212       2.249      2.2778E-02
   4    9.997       9.658       9.170       8.361       7.175       6.675       5.693       4.177       2.240      2.2686E-02
   5    9.996       9.632       9.056       7.883       5.078       6.184       5.573       4.148       2.234      2.2620E-02
   6    9.997       9.658       9.170       8.361       7.175       6.675       5.693       4.177       2.240      2.2686E-02
   7    9.997       9.691       9.284       8.682       7.865       7.002       5.810       4.212       2.249      2.2778E-02
   8    9.997       9.711       9.344       8.822       8.094       7.144       5.871       4.233       2.255      2.2836E-02
   9    9.997       9.719       9.367       8.871       8.164       7.193       5.895       4.242       2.257      2.2862E-02
  10    9.997       9.722       9.374       8.885       8.183       7.207       5.902       4.245       2.258      2.2871E-02

 HEAD WILL BE SAVED ON UNIT   51 AT END OF TIME STEP   29, STRESS PERIOD    3

 DRAWDOWN WILL BE SAVED ON UNIT   52 AT END OF TIME STEP   29, STRESS PERIOD    3
1
  VOLUMETRIC BUDGET FOR ENTIRE MODEL AT END OF TIME STEP   29, STRESS PERIOD   3
  ------------------------------------------------------------------------------

     CUMULATIVE VOLUMES      L**3       RATES FOR THIS TIME STEP      L**3/T
     ------------------                 ------------------------

           IN:                                      IN:
           ---                                      ---
             STORAGE =      356019.9688               STORAGE =        1456.6021
       CONSTANT HEAD =           0.0000         CONSTANT HEAD =           0.0000
               WELLS =           0.0000                 WELLS =           0.0000
     HEAD DEP BOUNDS =        6350.9292       HEAD DEP BOUNDS =         182.4581

            TOTAL IN =      362370.9062              TOTAL IN =        1639.0602

          OUT:                                     OUT:
          ----                                     ----
             STORAGE =           0.0000               STORAGE =           0.0000
       CONSTANT HEAD =           0.0000         CONSTANT HEAD =           0.0000
               WELLS =       14500.0000                 WELLS =         500.0000
     HEAD DEP BOUNDS =      347871.0312       HEAD DEP BOUNDS =        1139.0549

           TOTAL OUT =      362371.0312             TOTAL OUT =        1639.0549

            IN - OUT =          -0.1250              IN - OUT =       5.2490E-03

 PERCENT DISCREPANCY =          -0.00     PERCENT DISCREPANCY =           0.00






         TIME SUMMARY AT END OF TIME STEP   29 IN STRESS PERIOD    3
                    SECONDS     MINUTES      HOURS       DAYS        YEARS
                    -----------------------------------------------------------
   TIME STEP LENGTH  86400.      1440.0      24.000     1.00000     2.73785E-03
 STRESS PERIOD TIME 2.50560E+06  41760.      696.00      29.000     7.93977E-02
         TOTAL TIME 1.12320E+07 1.87200E+05  3120.0      130.00     0.35592    
1
 
 SOLVING FOR HEAD 

 OUTPUT CONTROL FOR STRESS PERIOD    3   TIME STEP   30
    SAVE HEAD FOR ALL LAYERS
    SAVE DRAWDOWN FOR ALL LAYERS
    SAVE BUDGET
    PRINT HEAD FOR ALL LAYERS
    PRINT BUDGET
 UBDSV1 SAVING "         STORAGE" ON UNIT  53 AT TIME STEP 30, STRESS PERIOD   3
 UBDSV2 SAVING "   CONSTANT HEAD" ON UNIT  53 AT TIME STEP 30, STRESS PERIOD   3
 UBDSV1 SAVING "FLOW RIGHT FACE " ON UNIT  53 AT TIME STEP 30, STRESS PERIOD   3
 UBDSV1 SAVING "FLOW FRONT FACE " ON UNIT  53 AT TIME STEP 30, STRESS PERIOD   3
1
              HEAD IN LAYER   1 AT END OF TIME STEP  30 IN STRESS PERIOD    3
  ---------------------------------------------------------------------------

            1           2           3           4           5           6           7           8           9          10
 ........................................................................................................................
   1    9.997       9.713       9.355       8.851       8.140       7.168       5.873       4.226       2.248      2.2769E-02
   2    9.997       9.705       9.331       8.803       8.071       7.120       5.850       4.217       2.246      2.2743E-02
   3    9.997       9.684       9.269       8.659       7.837       6.974       5.786       4.195       2.240      2.2680E-02
   4    9.997       9.650       9.152       8.332       7.138       6.640       5.665       4.157       2.230      2.2581E-02
   5    9.996       9.623       9.035       7.850       5.034       6.145       5.543       4.127       2.223      2.2512E-02
   6    9.997       9.650       9.152       8.332       7.138       6.640       5.665       4.157       2.230      2.2581E-02
   7    9.997       9.684       9.269       8.659       7.837       6.974       5.787       4.195       2.240      2.2680E-02
   8    9.997       9.705       9.332       8.804       8.072       7.121       5.851       4.218       2.246      2.2744E-02
   9    9.997       9.714       9.358       8.857       8.147       7.173       5.876       4.227       2.249      2.2773E-02
  10    9.997       9.717       9.366       8.872       8.167       7.189       5.884       4.230       2.250      2.2783E-02

 HEAD WILL BE SAVED ON UNIT   51 AT END OF TIME STEP   30, STRESS PERIOD    3

 DRAWDOWN WILL BE SAVED ON UNIT   52 AT END OF TIME STEP   30, STRESS PERIOD    3
1
  VOLUMETRIC BUDGET FOR ENTIRE MODEL AT END OF TIME STEP   30, STRESS PERIOD   3
  ------------------------------------------------------------------------------

     CUMULATIVE VOLUMES      L**3       RATES FOR THIS TIME STEP      L**3/T
     ------------------                 ------------------------

           IN:                                      IN:
           ---                                      ---
             STORAGE =      357467.9375               STORAGE =        1447.9679
       CONSTANT HEAD =           0.0000         CONSTANT HEAD =           0.0000
               WELLS =           0.0000                 WELLS =           0.0000
     HEAD DEP BOUNDS =        6537.1885       HEAD DEP BOUNDS =         186.2595

            TOTAL IN =      364005.1250              TOTAL IN =        1634.2274

          OUT:                                     OUT:
          ----                                     ----
             STORAGE =           0.0000               STORAGE =           0.0000
       CONSTANT HEAD =           0.0000         CONSTANT HEAD =           0.0000
               WELLS =       15000.0000                 WELLS =         500.0000
     HEAD DEP BOUNDS =      349005.2500       HEAD DEP BOUNDS =        1134.2314

           TOTAL OUT =      364005.2500             TOTAL OUT =        1634.2314

            IN - OUT =          -0.1250              IN - OUT =      -4.0283E-03

 PERCENT DISCREPANCY =          -0.00     PERCENT DISCREPANCY =          -0.00






         TIME SUMMARY AT END OF TIME STEP   30 IN STRESS PERIOD    3
                    SECONDS     MINUTES      HOURS       DAYS        YEARS
                    -----------------------------------------------------------
   TIME STEP LENGTH  86400.      1440.0      24.000     1.00000     2.73785E-03
 STRESS PERIOD TIME 2.59200E+06  43200.      720.00      30.000     8.21355E-02
         TOTAL TIME 1.13184E+07 1.88640E+05  3144.0      131.00     0.35866    
1
 
 SOLVING FOR HEAD 

 OUTPUT CONTROL FOR STRESS PERIOD    3   TIME STEP   31
    SAVE HEAD FOR ALL LAYERS
    SAVE DRAWDOWN FOR ALL LAYERS
    SAVE BUDGET
    PRINT HEAD FOR ALL LAYERS
    PRINT BUDGET
 UBDSV1 SAVING "         STORAGE" ON UNIT  53 AT TIME STEP 31, STRESS PERIOD   3
 UBDSV2 SAVING "   CONSTANT HEAD" ON UNIT  53 AT TIME STEP 31, STRESS PERIOD   3
 UBDSV1 SAVING "FLOW RIGHT FACE " ON UNIT  53 AT TIME STEP 31, STRESS PERIOD   3
 UBDSV1 SAVING "FLOW FRONT FACE " ON UNIT  53 AT TIME STEP 31, STRESS PERIOD   3
1
              HEAD IN LAYER   1 AT END OF TIME STEP  31 IN STRESS PERIOD    3
  ---------------------------------------------------------------------------

            1           2           3           4           5           6           7           8           9          10
 ........................................................................................................................
   1    9.997       9.708       9.345       8.836       8.121       7.148       5.855       4.211       2.240      2.2680E-02
   2    9.997       9.699       9.320       8.786       8.049       7.097       5.830       4.202       2.237      2.2651E-02
   3    9.997       9.677       9.254       8.637       7.809       6.946       5.763       4.178       2.230      2.2582E-02
   4    9.996       9.641       9.133       8.303       7.101       6.605       5.637       4.138       2.220      2.2476E-02
   5    9.996       9.613       9.015       7.817       4.992       6.106       5.512       4.107       2.213      2.2404E-02
   6    9.996       9.641       9.133       8.303       7.101       6.605       5.637       4.138       2.220      2.2476E-02
   7    9.997       9.677       9.255       8.637       7.809       6.946       5.763       4.178       2.230      2.2583E-02
   8    9.997       9.700       9.321       8.787       8.051       7.099       5.831       4.202       2.237      2.2653E-02
   9    9.997       9.710       9.348       8.842       8.129       7.154       5.858       4.212       2.240      2.2685E-02
  10    9.997       9.713       9.357       8.859       8.151       7.170       5.866       4.216       2.241      2.2696E-02

 HEAD WILL BE SAVED ON UNIT   51 AT END OF TIME STEP   31, STRESS PERIOD    3

 DRAWDOWN WILL BE SAVED ON UNIT   52 AT END OF TIME STEP   31, STRESS PERIOD    3
1
  VOLUMETRIC BUDGET FOR ENTIRE MODEL AT END OF TIME STEP   31, STRESS PERIOD   3
  ------------------------------------------------------------------------------

     CUMULATIVE VOLUMES      L**3       RATES FOR THIS TIME STEP      L**3/T
     ------------------                 ------------------------

           IN:                                      IN:
           ---                                      ---
             STORAGE =      358907.2812               STORAGE =        1439.3420
       CONSTANT HEAD =           0.0000         CONSTANT HEAD =           0.0000
               WELLS =           0.0000                 WELLS =           0.0000
     HEAD DEP BOUNDS =        6727.2769       HEAD DEP BOUNDS =         190.0882

            TOTAL IN =      365634.5625              TOTAL IN =        1629.4302

          OUT:                                     OUT:
          ----                                     ----
             STORAGE =           0.0000               STORAGE =           0.0000
       CONSTANT HEAD =           0.0000         CONSTANT HEAD =           0.0000
               WELLS =       15500.0000                 WELLS =         500.0000
     HEAD DEP BOUNDS =      350134.6875       HEAD DEP BOUNDS =        1129.4352

           TOTAL OUT =      365634.6875             TOTAL OUT =        1629.4352

            IN - OUT =          -0.1250              IN - OUT =      -5.0049E-03

 PERCENT DISCREPANCY =          -0.00     PERCENT DISCREPANCY =          -0.00






         TIME SUMMARY AT END OF TIME STEP   31 IN STRESS PERIOD    3
                    SECONDS     MINUTES      HOURS       DAYS        YEARS
                    -----------------------------------------------------------
   TIME STEP LENGTH  86400.      1440.0      24.000     1.00000     2.73785E-03
 STRESS PERIOD TIME 2.67840E+06  44640.      744.00      31.000     8.48734E-02
         TOTAL TIME 1.14048E+07 1.90080E+05  3168.0      132.00     0.36140    
1
 
 SOLVING FOR HEAD 

 OUTPUT CONTROL FOR STRESS PERIOD    3   TIME STEP   32
    SAVE HEAD FOR ALL LAYERS
    SAVE DRAWDOWN FOR ALL LAYERS
    SAVE BUDGET
    PRINT HEAD FOR ALL LAYERS
    PRINT BUDGET
 UBDSV1 SAVING "         STORAGE" ON UNIT  53 AT TIME STEP 32, STRESS PERIOD   3
 UBDSV2 SAVING "   CONSTANT HEAD" ON UNIT  53 AT TIME STEP 32, STRESS PERIOD   3
 UBDSV1 SAVING "FLOW RIGHT FACE " ON UNIT  53 AT TIME STEP 32, STRESS PERIOD   3
 UBDSV1 SAVING "FLOW FRONT FACE " ON UNIT  53 AT TIME STEP 32, STRESS PERIOD   3
1
              HEAD IN LAYER   1 AT END OF TIME STEP  32 IN STRESS PERIOD    3
  ---------------------------------------------------------------------------

            1           2           3           4           5           6           7           8           9          10
 ........................................................................................................................
   1    9.997       9.703       9.335       8.821       8.103       7.128       5.836       4.196       2.231      2.2592E-02
   2    9.997       9.694       9.309       8.769       8.028       7.075       5.809       4.186       2.228      2.2560E-02
   3    9.997       9.670       9.240       8.614       7.781       6.918       5.739       4.160       2.221      2.2485E-02
   4    9.996       9.633       9.115       8.274       7.065       6.571       5.609       4.119       2.210      2.2372E-02
   5    9.996       9.604       8.994       7.785       4.950       6.068       5.483       4.087       2.202      2.2296E-02
   6    9.996       9.633       9.115       8.274       7.066       6.571       5.609       4.119       2.210      2.2372E-02
   7    9.997       9.671       9.240       8.615       7.781       6.919       5.739       4.160       2.221      2.2486E-02
   8    9.997       9.694       9.310       8.770       8.030       7.077       5.810       4.186       2.228      2.2562E-02
   9    9.997       9.705       9.339       8.828       8.111       7.135       5.840       4.198       2.232      2.2598E-02
  10    9.997       9.708       9.348       8.846       8.134       7.152       5.849       4.202       2.233      2.2610E-02

 HEAD WILL BE SAVED ON UNIT   51 AT END OF TIME STEP   32, STRESS PERIOD    3

 DRAWDOWN WILL BE SAVED ON UNIT   52 AT END OF TIME STEP   32, STRESS PERIOD    3
1
  VOLUMETRIC BUDGET FOR ENTIRE MODEL AT END OF TIME STEP   32, STRESS PERIOD   3
  ------------------------------------------------------------------------------

     CUMULATIVE VOLUMES      L**3       RATES FOR THIS TIME STEP      L**3/T
     ------------------                 ------------------------

           IN:                                      IN:
           ---                                      ---
             STORAGE =      360338.0000               STORAGE =        1430.7195
       CONSTANT HEAD =           0.0000         CONSTANT HEAD =           0.0000
               WELLS =           0.0000                 WELLS =           0.0000
     HEAD DEP BOUNDS =        6921.2119       HEAD DEP BOUNDS =         193.9353

            TOTAL IN =      367259.2188              TOTAL IN =        1624.6548

          OUT:                                     OUT:
          ----                                     ----
             STORAGE =           0.0000               STORAGE =           0.0000
       CONSTANT HEAD =           0.0000         CONSTANT HEAD =           0.0000
               WELLS =       16000.0000                 WELLS =         500.0000
     HEAD DEP BOUNDS =      351259.3438       HEAD DEP BOUNDS =        1124.6635

           TOTAL OUT =      367259.3438             TOTAL OUT =        1624.6635

            IN - OUT =          -0.1250              IN - OUT =      -8.6670E-03

 PERCENT DISCREPANCY =          -0.00     PERCENT DISCREPANCY =          -0.00






         TIME SUMMARY AT END OF TIME STEP   32 IN STRESS PERIOD    3
                    SECONDS     MINUTES      HOURS       DAYS        YEARS
                    -----------------------------------------------------------
   TIME STEP LENGTH  86400.      1440.0      24.000     1.00000     2.73785E-03
 STRESS PERIOD TIME 2.76480E+06  46080.      768.00      32.000     8.76112E-02
         TOTAL TIME 1.14912E+07 1.91520E+05  3192.0      133.00     0.36413    
1
 
 SOLVING FOR HEAD 

 OUTPUT CONTROL FOR STRESS PERIOD    3   TIME STEP   33
    SAVE HEAD FOR ALL LAYERS
    SAVE DRAWDOWN FOR ALL LAYERS
    SAVE BUDGET
    PRINT HEAD FOR ALL LAYERS
    PRINT BUDGET
 UBDSV1 SAVING "         STORAGE" ON UNIT  53 AT TIME STEP 33, STRESS PERIOD   3
 UBDSV2 SAVING "   CONSTANT HEAD" ON UNIT  53 AT TIME STEP 33, STRESS PERIOD   3
 UBDSV1 SAVING "FLOW RIGHT FACE " ON UNIT  53 AT TIME STEP 33, STRESS PERIOD   3
 UBDSV1 SAVING "FLOW FRONT FACE " ON UNIT  53 AT TIME STEP 33, STRESS PERIOD   3
1
              HEAD IN LAYER   1 AT END OF TIME STEP  33 IN STRESS PERIOD    3
  ---------------------------------------------------------------------------

            1           2           3           4           5           6           7           8           9          10
 ........................................................................................................................
   1    9.997       9.698       9.325       8.807       8.084       7.108       5.817       4.181       2.223      2.2505E-02
   2    9.997       9.688       9.297       8.751       8.006       7.052       5.789       4.170       2.219      2.2470E-02
   3    9.997       9.663       9.225       8.592       7.753       6.891       5.716       4.143       2.211      2.2388E-02
   4    9.996       9.624       9.097       8.245       7.030       6.537       5.582       4.100       2.200      2.2268E-02
   5    9.996       9.595       8.974       7.753       4.910       6.031       5.453       4.067       2.192      2.2188E-02
   6    9.996       9.624       9.097       8.245       7.030       6.537       5.582       4.100       2.200      2.2268E-02
   7    9.997       9.664       9.226       8.592       7.754       6.891       5.716       4.143       2.211      2.2389E-02
   8    9.997       9.689       9.298       8.753       8.009       7.054       5.790       4.171       2.220      2.2472E-02
   9    9.997       9.700       9.329       8.814       8.094       7.116       5.821       4.183       2.224      2.2511E-02
  10    9.997       9.704       9.339       8.833       8.118       7.134       5.832       4.187       2.225      2.2525E-02

 HEAD WILL BE SAVED ON UNIT   51 AT END OF TIME STEP   33, STRESS PERIOD    3

 DRAWDOWN WILL BE SAVED ON UNIT   52 AT END OF TIME STEP   33, STRESS PERIOD    3
1
  VOLUMETRIC BUDGET FOR ENTIRE MODEL AT END OF TIME STEP   33, STRESS PERIOD   3
  ------------------------------------------------------------------------------

     CUMULATIVE VOLUMES      L**3       RATES FOR THIS TIME STEP      L**3/T
     ------------------                 ------------------------

           IN:                                      IN:
           ---                                      ---
             STORAGE =      361760.0938               STORAGE =        1422.1036
       CONSTANT HEAD =           0.0000         CONSTANT HEAD =           0.0000
               WELLS =           0.0000                 WELLS =           0.0000
     HEAD DEP BOUNDS =        7119.0239       HEAD DEP BOUNDS =         197.8119

            TOTAL IN =      368879.1250              TOTAL IN =        1619.9155

          OUT:                                     OUT:
          ----                                     ----
             STORAGE =           0.0000               STORAGE =           0.0000
       CONSTANT HEAD =           0.0000         CONSTANT HEAD =           0.0000
               WELLS =       16500.0000                 WELLS =         500.0000
     HEAD DEP BOUNDS =      352379.2500       HEAD DEP BOUNDS =        1119.9183

           TOTAL OUT =      368879.2500             TOTAL OUT =        1619.9183

            IN - OUT =          -0.1250              IN - OUT =      -2.8076E-03

 PERCENT DISCREPANCY =          -0.00     PERCENT DISCREPANCY =          -0.00






         TIME SUMMARY AT END OF TIME STEP   33 IN STRESS PERIOD    3
                    SECONDS     MINUTES      HOURS       DAYS        YEARS
                    -----------------------------------------------------------
   TIME STEP LENGTH  86400.      1440.0      24.000     1.00000     2.73785E-03
 STRESS PERIOD TIME 2.85120E+06  47520.      792.00      33.000     9.03491E-02
         TOTAL TIME 1.15776E+07 1.92960E+05  3216.0      134.00     0.36687    
1
 
 SOLVING FOR HEAD 

 OUTPUT CONTROL FOR STRESS PERIOD    3   TIME STEP   34
    SAVE HEAD FOR ALL LAYERS
    SAVE DRAWDOWN FOR ALL LAYERS
    SAVE BUDGET
    PRINT HEAD FOR ALL LAYERS
    PRINT BUDGET
 UBDSV1 SAVING "         STORAGE" ON UNIT  53 AT TIME STEP 34, STRESS PERIOD   3
 UBDSV2 SAVING "   CONSTANT HEAD" ON UNIT  53 AT TIME STEP 34, STRESS PERIOD   3
 UBDSV1 SAVING "FLOW RIGHT FACE " ON UNIT  53 AT TIME STEP 34, STRESS PERIOD   3
 UBDSV1 SAVING "FLOW FRONT FACE " ON UNIT  53 AT TIME STEP 34, STRESS PERIOD   3
1
              HEAD IN LAYER   1 AT END OF TIME STEP  34 IN STRESS PERIOD    3
  ---------------------------------------------------------------------------

            1           2           3           4           5           6           7           8           9          10
 ........................................................................................................................
   1    9.997       9.693       9.315       8.792       8.066       7.088       5.799       4.167       2.214      2.2418E-02
   2    9.997       9.682       9.285       8.734       7.985       7.030       5.769       4.155       2.211      2.2380E-02
   3    9.997       9.656       9.211       8.570       7.726       6.863       5.692       4.126       2.202      2.2292E-02
   4    9.996       9.616       9.079       8.217       6.996       6.503       5.555       4.081       2.190      2.2164E-02
   5    9.996       9.586       8.954       7.722       4.870       5.994       5.424       4.047       2.181      2.2081E-02
   6    9.996       9.616       9.079       8.217       6.996       6.503       5.555       4.081       2.190      2.2165E-02
   7    9.997       9.657       9.211       8.570       7.727       6.864       5.692       4.126       2.202      2.2292E-02
   8    9.997       9.683       9.287       8.736       7.987       7.032       5.770       4.155       2.211      2.2382E-02
   9    9.997       9.695       9.319       8.800       8.076       7.097       5.803       4.169       2.215      2.2425E-02
  10    9.997       9.700       9.330       8.820       8.102       7.116       5.814       4.173       2.217      2.2441E-02

 HEAD WILL BE SAVED ON UNIT   51 AT END OF TIME STEP   34, STRESS PERIOD    3

 DRAWDOWN WILL BE SAVED ON UNIT   52 AT END OF TIME STEP   34, STRESS PERIOD    3
1
  VOLUMETRIC BUDGET FOR ENTIRE MODEL AT END OF TIME STEP   34, STRESS PERIOD   3
  ------------------------------------------------------------------------------

     CUMULATIVE VOLUMES      L**3       RATES FOR THIS TIME STEP      L**3/T
     ------------------                 ------------------------

           IN:                                      IN:
           ---                                      ---
             STORAGE =      363173.5938               STORAGE =        1413.4933
       CONSTANT HEAD =           0.0000         CONSTANT HEAD =           0.0000
               WELLS =           0.0000                 WELLS =           0.0000
     HEAD DEP BOUNDS =        7320.7129       HEAD DEP BOUNDS =         201.6892

            TOTAL IN =      370494.3125              TOTAL IN =        1615.1825

          OUT:                                     OUT:
          ----                                     ----
             STORAGE =           0.0000               STORAGE =           0.0000
       CONSTANT HEAD =           0.0000         CONSTANT HEAD =           0.0000
               WELLS =       17000.0000                 WELLS =         500.0000
     HEAD DEP BOUNDS =      353494.4375       HEAD DEP BOUNDS =        1115.1979

           TOTAL OUT =      370494.4375             TOTAL OUT =        1615.1979

            IN - OUT =          -0.1250              IN - OUT =      -1.5381E-02

 PERCENT DISCREPANCY =          -0.00     PERCENT DISCREPANCY =          -0.00






         TIME SUMMARY AT END OF TIME STEP   34 IN STRESS PERIOD    3
                    SECONDS     MINUTES      HOURS       DAYS        YEARS
                    -----------------------------------------------------------
   TIME STEP LENGTH  86400.      1440.0      24.000     1.00000     2.73785E-03
 STRESS PERIOD TIME 2.93760E+06  48960.      816.00      34.000     9.30869E-02
         TOTAL TIME 1.16640E+07 1.94400E+05  3240.0      135.00     0.36961    
1
 
 SOLVING FOR HEAD 

 OUTPUT CONTROL FOR STRESS PERIOD    3   TIME STEP   35
    SAVE HEAD FOR ALL LAYERS
    SAVE DRAWDOWN FOR ALL LAYERS
    SAVE BUDGET
    PRINT HEAD FOR ALL LAYERS
    PRINT BUDGET
 UBDSV1 SAVING "         STORAGE" ON UNIT  53 AT TIME STEP 35, STRESS PERIOD   3
 UBDSV2 SAVING "   CONSTANT HEAD" ON UNIT  53 AT TIME STEP 35, STRESS PERIOD   3
 UBDSV1 SAVING "FLOW RIGHT FACE " ON UNIT  53 AT TIME STEP 35, STRESS PERIOD   3
 UBDSV1 SAVING "FLOW FRONT FACE " ON UNIT  53 AT TIME STEP 35, STRESS PERIOD   3
1
              HEAD IN LAYER   1 AT END OF TIME STEP  35 IN STRESS PERIOD    3
  ---------------------------------------------------------------------------

            1           2           3           4           5           6           7           8           9          10
 ........................................................................................................................
   1    9.997       9.688       9.304       8.777       8.047       7.069       5.780       4.152       2.206      2.2331E-02
   2    9.997       9.677       9.274       8.716       7.963       7.008       5.749       4.139       2.202      2.2290E-02
   3    9.997       9.649       9.196       8.547       7.699       6.836       5.669       4.109       2.193      2.2196E-02
   4    9.996       9.607       9.061       8.190       6.962       6.470       5.528       4.062       2.180      2.2061E-02
   5    9.996       9.576       8.935       7.691       4.831       5.958       5.395       4.027       2.171      2.1974E-02
   6    9.996       9.607       9.061       8.190       6.962       6.470       5.528       4.062       2.180      2.2061E-02
   7    9.997       9.650       9.196       8.548       7.700       6.837       5.669       4.109       2.193      2.2197E-02
   8    9.997       9.677       9.275       8.719       7.966       7.010       5.750       4.140       2.202      2.2292E-02
   9    9.997       9.690       9.310       8.786       8.058       7.077       5.785       4.154       2.207      2.2340E-02
  10    9.997       9.695       9.322       8.807       8.085       7.099       5.797       4.159       2.209      2.2357E-02

 HEAD WILL BE SAVED ON UNIT   51 AT END OF TIME STEP   35, STRESS PERIOD    3

 DRAWDOWN WILL BE SAVED ON UNIT   52 AT END OF TIME STEP   35, STRESS PERIOD    3
1
  VOLUMETRIC BUDGET FOR ENTIRE MODEL AT END OF TIME STEP   35, STRESS PERIOD   3
  ------------------------------------------------------------------------------

     CUMULATIVE VOLUMES      L**3       RATES FOR THIS TIME STEP      L**3/T
     ------------------                 ------------------------

           IN:                                      IN:
           ---                                      ---
             STORAGE =      364578.5000               STORAGE =        1404.8940
       CONSTANT HEAD =           0.0000         CONSTANT HEAD =           0.0000
               WELLS =           0.0000                 WELLS =           0.0000
     HEAD DEP BOUNDS =        7526.3179       HEAD DEP BOUNDS =         205.6051

            TOTAL IN =      372104.8125              TOTAL IN =        1610.4991

          OUT:                                     OUT:
          ----                                     ----
             STORAGE =           0.0000               STORAGE =           0.0000
       CONSTANT HEAD =           0.0000         CONSTANT HEAD =           0.0000
               WELLS =       17500.0000                 WELLS =         500.0000
     HEAD DEP BOUNDS =      354604.9375       HEAD DEP BOUNDS =        1110.4996

           TOTAL OUT =      372104.9375             TOTAL OUT =        1610.4996

            IN - OUT =          -0.1250              IN - OUT =      -4.8828E-04

 PERCENT DISCREPANCY =          -0.00     PERCENT DISCREPANCY =          -0.00






         TIME SUMMARY AT END OF TIME STEP   35 IN STRESS PERIOD    3
                    SECONDS     MINUTES      HOURS       DAYS        YEARS
                    -----------------------------------------------------------
   TIME STEP LENGTH  86400.      1440.0      24.000     1.00000     2.73785E-03
 STRESS PERIOD TIME 3.02400E+06  50400.      840.00      35.000     9.58248E-02
         TOTAL TIME 1.17504E+07 1.95840E+05  3264.0      136.00     0.37235    
1
 
 SOLVING FOR HEAD 

 OUTPUT CONTROL FOR STRESS PERIOD    3   TIME STEP   36
    SAVE HEAD FOR ALL LAYERS
    SAVE DRAWDOWN FOR ALL LAYERS
    SAVE BUDGET
    PRINT HEAD FOR ALL LAYERS
    PRINT BUDGET
 UBDSV1 SAVING "         STORAGE" ON UNIT  53 AT TIME STEP 36, STRESS PERIOD   3
 UBDSV2 SAVING "   CONSTANT HEAD" ON UNIT  53 AT TIME STEP 36, STRESS PERIOD   3
 UBDSV1 SAVING "FLOW RIGHT FACE " ON UNIT  53 AT TIME STEP 36, STRESS PERIOD   3
 UBDSV1 SAVING "FLOW FRONT FACE " ON UNIT  53 AT TIME STEP 36, STRESS PERIOD   3
1
              HEAD IN LAYER   1 AT END OF TIME STEP  36 IN STRESS PERIOD    3
  ---------------------------------------------------------------------------

            1           2           3           4           5           6           7           8           9          10
 ........................................................................................................................
   1    9.997       9.683       9.294       8.762       8.029       7.049       5.762       4.137       2.198      2.2246E-02
   2    9.997       9.671       9.262       8.699       7.942       6.985       5.729       4.124       2.193      2.2201E-02
   3    9.996       9.642       9.181       8.525       7.672       6.809       5.646       4.092       2.184      2.2100E-02
   4    9.996       9.599       9.043       8.162       6.928       6.438       5.501       4.043       2.170      2.1958E-02
   5    9.996       9.567       8.915       7.661       4.793       5.922       5.367       4.007       2.161      2.1868E-02
   6    9.996       9.599       9.043       8.163       6.929       6.438       5.501       4.043       2.170      2.1958E-02
   7    9.996       9.643       9.182       8.526       7.673       6.810       5.646       4.092       2.184      2.2101E-02
   8    9.997       9.672       9.264       8.702       7.945       6.988       5.730       4.125       2.194      2.2204E-02
   9    9.997       9.686       9.300       8.771       8.040       7.058       5.767       4.140       2.199      2.2255E-02
  10    9.997       9.691       9.313       8.794       8.069       7.081       5.780       4.145       2.201      2.2274E-02

 HEAD WILL BE SAVED ON UNIT   51 AT END OF TIME STEP   36, STRESS PERIOD    3

 DRAWDOWN WILL BE SAVED ON UNIT   52 AT END OF TIME STEP   36, STRESS PERIOD    3
1
  VOLUMETRIC BUDGET FOR ENTIRE MODEL AT END OF TIME STEP   36, STRESS PERIOD   3
  ------------------------------------------------------------------------------

     CUMULATIVE VOLUMES      L**3       RATES FOR THIS TIME STEP      L**3/T
     ------------------                 ------------------------

           IN:                                      IN:
           ---                                      ---
             STORAGE =      365974.8125               STORAGE =        1396.3138
       CONSTANT HEAD =           0.0000         CONSTANT HEAD =           0.0000
               WELLS =           0.0000                 WELLS =           0.0000
     HEAD DEP BOUNDS =        7735.8359       HEAD DEP BOUNDS =         209.5179

            TOTAL IN =      373710.6562              TOTAL IN =        1605.8318

          OUT:                                     OUT:
          ----                                     ----
             STORAGE =           0.0000               STORAGE =           0.0000
       CONSTANT HEAD =           0.0000         CONSTANT HEAD =           0.0000
               WELLS =       18000.0000                 WELLS =         500.0000
     HEAD DEP BOUNDS =      355710.7500       HEAD DEP BOUNDS =        1105.8281

           TOTAL OUT =      373710.7500             TOTAL OUT =        1605.8281

            IN - OUT =      -9.3750E-02              IN - OUT =       3.6621E-03

 PERCENT DISCREPANCY =          -0.00     PERCENT DISCREPANCY =           0.00






         TIME SUMMARY AT END OF TIME STEP   36 IN STRESS PERIOD    3
                    SECONDS     MINUTES      HOURS       DAYS        YEARS
                    -----------------------------------------------------------
   TIME STEP LENGTH  86400.      1440.0      24.000     1.00000     2.73785E-03
 STRESS PERIOD TIME 3.11040E+06  51840.      864.00      36.000     9.85626E-02
         TOTAL TIME 1.18368E+07 1.97280E+05  3288.0      137.00     0.37509    
1
 
 SOLVING FOR HEAD 

 OUTPUT CONTROL FOR STRESS PERIOD    3   TIME STEP   37
    SAVE HEAD FOR ALL LAYERS
    SAVE DRAWDOWN FOR ALL LAYERS
    SAVE BUDGET
    PRINT HEAD FOR ALL LAYERS
    PRINT BUDGET
 UBDSV1 SAVING "         STORAGE" ON UNIT  53 AT TIME STEP 37, STRESS PERIOD   3
 UBDSV2 SAVING "   CONSTANT HEAD" ON UNIT  53 AT TIME STEP 37, STRESS PERIOD   3
 UBDSV1 SAVING "FLOW RIGHT FACE " ON UNIT  53 AT TIME STEP 37, STRESS PERIOD   3
 UBDSV1 SAVING "FLOW FRONT FACE " ON UNIT  53 AT TIME STEP 37, STRESS PERIOD   3
1
              HEAD IN LAYER   1 AT END OF TIME STEP  37 IN STRESS PERIOD    3
  ---------------------------------------------------------------------------

            1           2           3           4           5           6           7           8           9          10
 ........................................................................................................................
   1    9.997       9.678       9.284       8.746       8.010       7.029       5.743       4.123       2.190      2.2160E-02
   2    9.997       9.665       9.250       8.681       7.921       6.963       5.709       4.108       2.185      2.2112E-02
   3    9.996       9.635       9.167       8.504       7.646       6.782       5.622       4.075       2.174      2.2005E-02
   4    9.996       9.590       9.025       8.136       6.896       6.406       5.474       4.024       2.160      2.1856E-02
   5    9.996       9.558       8.896       7.632       4.756       5.887       5.338       3.987       2.150      2.1762E-02
   6    9.996       9.590       9.025       8.136       6.896       6.406       5.474       4.024       2.160      2.1856E-02
   7    9.996       9.635       9.167       8.504       7.646       6.783       5.623       4.075       2.174      2.2006E-02
   8    9.997       9.666       9.252       8.684       7.924       6.966       5.710       4.109       2.185      2.2115E-02
   9    9.997       9.681       9.290       8.757       8.023       7.039       5.749       4.126       2.191      2.2171E-02
  10    9.997       9.686       9.304       8.781       8.053       7.063       5.763       4.132       2.193      2.2192E-02

 HEAD WILL BE SAVED ON UNIT   51 AT END OF TIME STEP   37, STRESS PERIOD    3

 DRAWDOWN WILL BE SAVED ON UNIT   52 AT END OF TIME STEP   37, STRESS PERIOD    3
1
  VOLUMETRIC BUDGET FOR ENTIRE MODEL AT END OF TIME STEP   37, STRESS PERIOD   3
  ------------------------------------------------------------------------------

     CUMULATIVE VOLUMES      L**3       RATES FOR THIS TIME STEP      L**3/T
     ------------------                 ------------------------

           IN:                                      IN:
           ---                                      ---
             STORAGE =      367362.5625               STORAGE =        1387.7372
       CONSTANT HEAD =           0.0000         CONSTANT HEAD =           0.0000
               WELLS =           0.0000                 WELLS =           0.0000
     HEAD DEP BOUNDS =        7949.2817       HEAD DEP BOUNDS =         213.4456

            TOTAL IN =      375311.8438              TOTAL IN =        1601.1827

          OUT:                                     OUT:
          ----                                     ----
             STORAGE =           0.0000               STORAGE =           0.0000
       CONSTANT HEAD =           0.0000         CONSTANT HEAD =           0.0000
               WELLS =       18500.0000                 WELLS =         500.0000
     HEAD DEP BOUNDS =      356811.9375       HEAD DEP BOUNDS =        1101.1783

           TOTAL OUT =      375311.9375             TOTAL OUT =        1601.1783

            IN - OUT =      -9.3750E-02              IN - OUT =       4.3945E-03

 PERCENT DISCREPANCY =          -0.00     PERCENT DISCREPANCY =           0.00






         TIME SUMMARY AT END OF TIME STEP   37 IN STRESS PERIOD    3
                    SECONDS     MINUTES      HOURS       DAYS        YEARS
                    -----------------------------------------------------------
   TIME STEP LENGTH  86400.      1440.0      24.000     1.00000     2.73785E-03
 STRESS PERIOD TIME 3.19680E+06  53280.      888.00      37.000     0.10130    
         TOTAL TIME 1.19232E+07 1.98720E+05  3312.0      138.00     0.37782    
1
 
 SOLVING FOR HEAD 

 OUTPUT CONTROL FOR STRESS PERIOD    3   TIME STEP   38
    SAVE HEAD FOR ALL LAYERS
    SAVE DRAWDOWN FOR ALL LAYERS
    SAVE BUDGET
    PRINT HEAD FOR ALL LAYERS
    PRINT BUDGET
 UBDSV1 SAVING "         STORAGE" ON UNIT  53 AT TIME STEP 38, STRESS PERIOD   3
 UBDSV2 SAVING "   CONSTANT HEAD" ON UNIT  53 AT TIME STEP 38, STRESS PERIOD   3
 UBDSV1 SAVING "FLOW RIGHT FACE " ON UNIT  53 AT TIME STEP 38, STRESS PERIOD   3
 UBDSV1 SAVING "FLOW FRONT FACE " ON UNIT  53 AT TIME STEP 38, STRESS PERIOD   3
1
              HEAD IN LAYER   1 AT END OF TIME STEP  38 IN STRESS PERIOD    3
  ---------------------------------------------------------------------------

            1           2           3           4           5           6           7           8           9          10
 ........................................................................................................................
   1    9.997       9.673       9.274       8.731       7.991       7.009       5.725       4.108       2.181      2.2076E-02
   2    9.997       9.659       9.238       8.664       7.899       6.941       5.689       4.093       2.176      2.2024E-02
   3    9.996       9.628       9.152       8.482       7.619       6.756       5.599       4.058       2.165      2.1910E-02
   4    9.996       9.582       9.007       8.109       6.863       6.374       5.448       4.005       2.150      2.1753E-02
   5    9.996       9.549       8.877       7.603       4.720       5.853       5.310       3.968       2.140      2.1656E-02
   6    9.996       9.582       9.007       8.109       6.863       6.374       5.448       4.005       2.150      2.1754E-02
   7    9.996       9.628       9.153       8.483       7.620       6.756       5.600       4.058       2.165      2.1911E-02
   8    9.997       9.660       9.240       8.667       7.903       6.944       5.691       4.094       2.177      2.2028E-02
   9    9.997       9.676       9.281       8.743       8.005       7.021       5.732       4.112       2.183      2.2088E-02
  10    9.997       9.682       9.295       8.768       8.037       7.045       5.746       4.118       2.185      2.2111E-02

 HEAD WILL BE SAVED ON UNIT   51 AT END OF TIME STEP   38, STRESS PERIOD    3

 DRAWDOWN WILL BE SAVED ON UNIT   52 AT END OF TIME STEP   38, STRESS PERIOD    3
1
  VOLUMETRIC BUDGET FOR ENTIRE MODEL AT END OF TIME STEP   38, STRESS PERIOD   3
  ------------------------------------------------------------------------------

     CUMULATIVE VOLUMES      L**3       RATES FOR THIS TIME STEP      L**3/T
     ------------------                 ------------------------

           IN:                                      IN:
           ---                                      ---
             STORAGE =      368741.7500               STORAGE =        1379.1722
       CONSTANT HEAD =           0.0000         CONSTANT HEAD =           0.0000
               WELLS =           0.0000                 WELLS =           0.0000
     HEAD DEP BOUNDS =        8166.6616       HEAD DEP BOUNDS =         217.3797

            TOTAL IN =      376908.4062              TOTAL IN =        1596.5520

          OUT:                                     OUT:
          ----                                     ----
             STORAGE =           0.0000               STORAGE =           0.0000
       CONSTANT HEAD =           0.0000         CONSTANT HEAD =           0.0000
               WELLS =       19000.0000                 WELLS =         500.0000
     HEAD DEP BOUNDS =      357908.5000       HEAD DEP BOUNDS =        1096.5543

           TOTAL OUT =      376908.5000             TOTAL OUT =        1596.5543

            IN - OUT =      -9.3750E-02              IN - OUT =      -2.3193E-03

 PERCENT DISCREPANCY =          -0.00     PERCENT DISCREPANCY =          -0.00






         TIME SUMMARY AT END OF TIME STEP   38 IN STRESS PERIOD    3
                    SECONDS     MINUTES      HOURS       DAYS        YEARS
                    -----------------------------------------------------------
   TIME STEP LENGTH  86400.      1440.0      24.000     1.00000     2.73785E-03
 STRESS PERIOD TIME 3.28320E+06  54720.      912.00      38.000     0.10404    
         TOTAL TIME 1.20096E+07 2.00160E+05  3336.0      139.00     0.38056    
1
 
 SOLVING FOR HEAD 

 OUTPUT CONTROL FOR STRESS PERIOD    3   TIME STEP   39
    SAVE HEAD FOR ALL LAYERS
    SAVE DRAWDOWN FOR ALL LAYERS
    SAVE BUDGET
    PRINT HEAD FOR ALL LAYERS
    PRINT BUDGET
 UBDSV1 SAVING "         STORAGE" ON UNIT  53 AT TIME STEP 39, STRESS PERIOD   3
 UBDSV2 SAVING "   CONSTANT HEAD" ON UNIT  53 AT TIME STEP 39, STRESS PERIOD   3
 UBDSV1 SAVING "FLOW RIGHT FACE " ON UNIT  53 AT TIME STEP 39, STRESS PERIOD   3
 UBDSV1 SAVING "FLOW FRONT FACE " ON UNIT  53 AT TIME STEP 39, STRESS PERIOD   3
1
              HEAD IN LAYER   1 AT END OF TIME STEP  39 IN STRESS PERIOD    3
  ---------------------------------------------------------------------------

            1           2           3           4           5           6           7           8           9          10
 ........................................................................................................................
   1    9.997       9.668       9.263       8.716       7.973       6.989       5.706       4.094       2.173      2.1992E-02
   2    9.997       9.653       9.226       8.647       7.878       6.919       5.669       4.078       2.168      2.1936E-02
   3    9.996       9.621       9.138       8.460       7.593       6.729       5.577       4.041       2.156      2.1816E-02
   4    9.996       9.573       8.990       8.083       6.831       6.343       5.422       3.987       2.140      2.1652E-02
   5    9.995       9.540       8.858       7.574       4.684       5.819       5.283       3.948       2.130      2.1551E-02
   6    9.996       9.573       8.990       8.083       6.832       6.343       5.422       3.987       2.140      2.1652E-02
   7    9.996       9.621       9.138       8.461       7.594       6.730       5.577       4.041       2.156      2.1817E-02
   8    9.997       9.654       9.229       8.650       7.882       6.923       5.671       4.079       2.168      2.1940E-02
   9    9.997       9.671       9.271       8.729       7.988       7.002       5.714       4.098       2.175      2.2005E-02
  10    9.997       9.677       9.286       8.755       8.021       7.028       5.729       4.105       2.177      2.2030E-02

 HEAD WILL BE SAVED ON UNIT   51 AT END OF TIME STEP   39, STRESS PERIOD    3

 DRAWDOWN WILL BE SAVED ON UNIT   52 AT END OF TIME STEP   39, STRESS PERIOD    3
1
  VOLUMETRIC BUDGET FOR ENTIRE MODEL AT END OF TIME STEP   39, STRESS PERIOD   3
  ------------------------------------------------------------------------------

     CUMULATIVE VOLUMES      L**3       RATES FOR THIS TIME STEP      L**3/T
     ------------------                 ------------------------

           IN:                                      IN:
           ---                                      ---
             STORAGE =      370112.3750               STORAGE =        1370.6373
       CONSTANT HEAD =           0.0000         CONSTANT HEAD =           0.0000
               WELLS =           0.0000                 WELLS =           0.0000
     HEAD DEP BOUNDS =        8387.9805       HEAD DEP BOUNDS =         221.3187

            TOTAL IN =      378500.3438              TOTAL IN =        1591.9561

          OUT:                                     OUT:
          ----                                     ----
             STORAGE =           0.0000               STORAGE =           0.0000
       CONSTANT HEAD =           0.0000         CONSTANT HEAD =           0.0000
               WELLS =       19500.0000                 WELLS =         500.0000
     HEAD DEP BOUNDS =      359000.4688       HEAD DEP BOUNDS =        1091.9569

           TOTAL OUT =      378500.4688             TOTAL OUT =        1591.9569

            IN - OUT =          -0.1250              IN - OUT =      -8.5449E-04

 PERCENT DISCREPANCY =          -0.00     PERCENT DISCREPANCY =          -0.00






         TIME SUMMARY AT END OF TIME STEP   39 IN STRESS PERIOD    3
                    SECONDS     MINUTES      HOURS       DAYS        YEARS
                    -----------------------------------------------------------
   TIME STEP LENGTH  86400.      1440.0      24.000     1.00000     2.73785E-03
 STRESS PERIOD TIME 3.36960E+06  56160.      936.00      39.000     0.10678    
         TOTAL TIME 1.20960E+07 2.01600E+05  3360.0      140.00     0.38330    
1
 
 SOLVING FOR HEAD 

 OUTPUT CONTROL FOR STRESS PERIOD    3   TIME STEP   40
    SAVE HEAD FOR ALL LAYERS
    SAVE DRAWDOWN FOR ALL LAYERS
    SAVE BUDGET
    PRINT HEAD FOR ALL LAYERS
    PRINT BUDGET
 UBDSV1 SAVING "         STORAGE" ON UNIT  53 AT TIME STEP 40, STRESS PERIOD   3
 UBDSV2 SAVING "   CONSTANT HEAD" ON UNIT  53 AT TIME STEP 40, STRESS PERIOD   3
 UBDSV1 SAVING "FLOW RIGHT FACE " ON UNIT  53 AT TIME STEP 40, STRESS PERIOD   3
 UBDSV1 SAVING "FLOW FRONT FACE " ON UNIT  53 AT TIME STEP 40, STRESS PERIOD   3
1
              HEAD IN LAYER   1 AT END OF TIME STEP  40 IN STRESS PERIOD    3
  ---------------------------------------------------------------------------

            1           2           3           4           5           6           7           8           9          10
 ........................................................................................................................
   1    9.997       9.662       9.253       8.701       7.954       6.970       5.688       4.080       2.165      2.1908E-02
   2    9.997       9.647       9.215       8.629       7.857       6.897       5.649       4.063       2.159      2.1849E-02
   3    9.996       9.614       9.123       8.439       7.567       6.703       5.554       4.024       2.147      2.1722E-02
   4    9.996       9.565       8.972       8.057       6.800       6.312       5.396       3.968       2.130      2.1550E-02
   5    9.995       9.531       8.839       7.546       4.649       5.786       5.255       3.929       2.120      2.1447E-02
   6    9.996       9.565       8.972       8.057       6.800       6.312       5.396       3.968       2.130      2.1551E-02
   7    9.996       9.614       9.124       8.440       7.568       6.704       5.554       4.025       2.147      2.1723E-02
   8    9.997       9.648       9.217       8.633       7.861       6.901       5.651       4.064       2.160      2.1853E-02
   9    9.997       9.666       9.261       8.714       7.970       6.983       5.696       4.084       2.167      2.1923E-02
  10    9.997       9.673       9.277       8.742       8.004       7.010       5.712       4.091       2.169      2.1950E-02

 HEAD WILL BE SAVED ON UNIT   51 AT END OF TIME STEP   40, STRESS PERIOD    3

 DRAWDOWN WILL BE SAVED ON UNIT   52 AT END OF TIME STEP   40, STRESS PERIOD    3
1
  VOLUMETRIC BUDGET FOR ENTIRE MODEL AT END OF TIME STEP   40, STRESS PERIOD   3
  ------------------------------------------------------------------------------

     CUMULATIVE VOLUMES      L**3       RATES FOR THIS TIME STEP      L**3/T
     ------------------                 ------------------------

           IN:                                      IN:
           ---                                      ---
             STORAGE =      371474.5000               STORAGE =        1362.1205
       CONSTANT HEAD =           0.0000         CONSTANT HEAD =           0.0000
               WELLS =           0.0000                 WELLS =           0.0000
     HEAD DEP BOUNDS =        8613.2344       HEAD DEP BOUNDS =         225.2543

            TOTAL IN =      380087.7500              TOTAL IN =        1587.3748

          OUT:                                     OUT:
          ----                                     ----
             STORAGE =           0.0000               STORAGE =           0.0000
       CONSTANT HEAD =           0.0000         CONSTANT HEAD =           0.0000
               WELLS =       20000.0000                 WELLS =         500.0000
     HEAD DEP BOUNDS =      360087.8438       HEAD DEP BOUNDS =        1087.3811

           TOTAL OUT =      380087.8438             TOTAL OUT =        1587.3811

            IN - OUT =      -9.3750E-02              IN - OUT =      -6.3477E-03

 PERCENT DISCREPANCY =          -0.00     PERCENT DISCREPANCY =          -0.00






         TIME SUMMARY AT END OF TIME STEP   40 IN STRESS PERIOD    3
                    SECONDS     MINUTES      HOURS       DAYS        YEARS
                    -----------------------------------------------------------
   TIME STEP LENGTH  86400.      1440.0      24.000     1.00000     2.73785E-03
 STRESS PERIOD TIME 3.45600E+06  57600.      960.00      40.000     0.10951    
         TOTAL TIME 1.21824E+07 2.03040E+05  3384.0      141.00     0.38604    
1
 
 SOLVING FOR HEAD 

 OUTPUT CONTROL FOR STRESS PERIOD    3   TIME STEP   41
    SAVE HEAD FOR ALL LAYERS
    SAVE DRAWDOWN FOR ALL LAYERS
    SAVE BUDGET
    PRINT HEAD FOR ALL LAYERS
    PRINT BUDGET
 UBDSV1 SAVING "         STORAGE" ON UNIT  53 AT TIME STEP 41, STRESS PERIOD   3
 UBDSV2 SAVING "   CONSTANT HEAD" ON UNIT  53 AT TIME STEP 41, STRESS PERIOD   3
 UBDSV1 SAVING "FLOW RIGHT FACE " ON UNIT  53 AT TIME STEP 41, STRESS PERIOD   3
 UBDSV1 SAVING "FLOW FRONT FACE " ON UNIT  53 AT TIME STEP 41, STRESS PERIOD   3
1
              HEAD IN LAYER   1 AT END OF TIME STEP  41 IN STRESS PERIOD    3
  ---------------------------------------------------------------------------

            1           2           3           4           5           6           7           8           9          10
 ........................................................................................................................
   1    9.997       9.657       9.242       8.686       7.935       6.950       5.670       4.065       2.157      2.1825E-02
   2    9.996       9.641       9.203       8.612       7.836       6.875       5.629       4.047       2.151      2.1762E-02
   3    9.996       9.607       9.108       8.418       7.541       6.677       5.531       4.008       2.138      2.1628E-02
   4    9.996       9.556       8.955       8.031       6.769       6.281       5.370       3.950       2.120      2.1449E-02
   5    9.995       9.522       8.821       7.518       4.614       5.753       5.228       3.910       2.110      2.1343E-02
   6    9.996       9.556       8.955       8.032       6.769       6.281       5.370       3.950       2.120      2.1450E-02
   7    9.996       9.607       9.109       8.419       7.543       6.678       5.532       4.008       2.138      2.1629E-02
   8    9.996       9.643       9.205       8.616       7.841       6.879       5.632       4.049       2.151      2.1767E-02
   9    9.997       9.661       9.251       8.700       7.952       6.964       5.679       4.070       2.159      2.1841E-02
  10    9.997       9.668       9.268       8.729       7.988       6.993       5.696       4.078       2.162      2.1871E-02

 HEAD WILL BE SAVED ON UNIT   51 AT END OF TIME STEP   41, STRESS PERIOD    3

 DRAWDOWN WILL BE SAVED ON UNIT   52 AT END OF TIME STEP   41, STRESS PERIOD    3
1
  VOLUMETRIC BUDGET FOR ENTIRE MODEL AT END OF TIME STEP   41, STRESS PERIOD   3
  ------------------------------------------------------------------------------

     CUMULATIVE VOLUMES      L**3       RATES FOR THIS TIME STEP      L**3/T
     ------------------                 ------------------------

           IN:                                      IN:
           ---                                      ---
             STORAGE =      372828.1250               STORAGE =        1353.6277
       CONSTANT HEAD =           0.0000         CONSTANT HEAD =           0.0000
               WELLS =           0.0000                 WELLS =           0.0000
     HEAD DEP BOUNDS =        8842.4463       HEAD DEP BOUNDS =         229.2117

            TOTAL IN =      381670.5625              TOTAL IN =        1582.8394

          OUT:                                     OUT:
          ----                                     ----
             STORAGE =           0.0000               STORAGE =           0.0000
       CONSTANT HEAD =           0.0000         CONSTANT HEAD =           0.0000
               WELLS =       20500.0000                 WELLS =         500.0000
     HEAD DEP BOUNDS =      361170.6562       HEAD DEP BOUNDS =        1082.8276

           TOTAL OUT =      381670.6562             TOTAL OUT =        1582.8276

            IN - OUT =      -9.3750E-02              IN - OUT =       1.1719E-02

 PERCENT DISCREPANCY =          -0.00     PERCENT DISCREPANCY =           0.00






         TIME SUMMARY AT END OF TIME STEP   41 IN STRESS PERIOD    3
                    SECONDS     MINUTES      HOURS       DAYS        YEARS
                    -----------------------------------------------------------
   TIME STEP LENGTH  86400.      1440.0      24.000     1.00000     2.73785E-03
 STRESS PERIOD TIME 3.54240E+06  59040.      984.00      41.000     0.11225    
         TOTAL TIME 1.22688E+07 2.04480E+05  3408.0      142.00     0.38877    
1
 
 SOLVING FOR HEAD 

 OUTPUT CONTROL FOR STRESS PERIOD    3   TIME STEP   42
    SAVE HEAD FOR ALL LAYERS
    SAVE DRAWDOWN FOR ALL LAYERS
    SAVE BUDGET
    PRINT HEAD FOR ALL LAYERS
    PRINT BUDGET
 UBDSV1 SAVING "         STORAGE" ON UNIT  53 AT TIME STEP 42, STRESS PERIOD   3
 UBDSV2 SAVING "   CONSTANT HEAD" ON UNIT  53 AT TIME STEP 42, STRESS PERIOD   3
 UBDSV1 SAVING "FLOW RIGHT FACE " ON UNIT  53 AT TIME STEP 42, STRESS PERIOD   3
 UBDSV1 SAVING "FLOW FRONT FACE " ON UNIT  53 AT TIME STEP 42, STRESS PERIOD   3
1
              HEAD IN LAYER   1 AT END OF TIME STEP  42 IN STRESS PERIOD    3
  ---------------------------------------------------------------------------

            1           2           3           4           5           6           7           8           9          10
 ........................................................................................................................
   1    9.997       9.652       9.232       8.670       7.917       6.930       5.652       4.051       2.149      2.1742E-02
   2    9.996       9.635       9.191       8.594       7.815       6.853       5.609       4.032       2.143      2.1675E-02
   3    9.996       9.599       9.094       8.396       7.516       6.651       5.509       3.991       2.129      2.1535E-02
   4    9.996       9.548       8.938       8.006       6.738       6.251       5.345       3.931       2.111      2.1349E-02
   5    9.995       9.513       8.803       7.491       4.580       5.721       5.201       3.891       2.100      2.1239E-02
   6    9.996       9.548       8.938       8.006       6.739       6.251       5.345       3.932       2.111      2.1350E-02
   7    9.996       9.600       9.095       8.398       7.517       6.652       5.509       3.991       2.129      2.1536E-02
   8    9.996       9.637       9.194       8.599       7.820       6.858       5.612       4.034       2.143      2.1681E-02
   9    9.997       9.656       9.241       8.686       7.935       6.945       5.661       4.056       2.151      2.1760E-02
  10    9.997       9.663       9.259       8.715       7.972       6.975       5.679       4.064       2.154      2.1792E-02

 HEAD WILL BE SAVED ON UNIT   51 AT END OF TIME STEP   42, STRESS PERIOD    3

 DRAWDOWN WILL BE SAVED ON UNIT   52 AT END OF TIME STEP   42, STRESS PERIOD    3
1
  VOLUMETRIC BUDGET FOR ENTIRE MODEL AT END OF TIME STEP   42, STRESS PERIOD   3
  ------------------------------------------------------------------------------

     CUMULATIVE VOLUMES      L**3       RATES FOR THIS TIME STEP      L**3/T
     ------------------                 ------------------------

           IN:                                      IN:
           ---                                      ---
             STORAGE =      374173.2812               STORAGE =        1345.1541
       CONSTANT HEAD =           0.0000         CONSTANT HEAD =           0.0000
               WELLS =           0.0000                 WELLS =           0.0000
     HEAD DEP BOUNDS =        9075.5889       HEAD DEP BOUNDS =         233.1427

            TOTAL IN =      383248.8750              TOTAL IN =        1578.2968

          OUT:                                     OUT:
          ----                                     ----
             STORAGE =           0.0000               STORAGE =           0.0000
       CONSTANT HEAD =           0.0000         CONSTANT HEAD =           0.0000
               WELLS =       21000.0000                 WELLS =         500.0000
     HEAD DEP BOUNDS =      362248.9688       HEAD DEP BOUNDS =        1078.2988

           TOTAL OUT =      383248.9688             TOTAL OUT =        1578.2988

            IN - OUT =      -9.3750E-02              IN - OUT =      -2.0752E-03

 PERCENT DISCREPANCY =          -0.00     PERCENT DISCREPANCY =          -0.00






         TIME SUMMARY AT END OF TIME STEP   42 IN STRESS PERIOD    3
                    SECONDS     MINUTES      HOURS       DAYS        YEARS
                    -----------------------------------------------------------
   TIME STEP LENGTH  86400.      1440.0      24.000     1.00000     2.73785E-03
 STRESS PERIOD TIME 3.62880E+06  60480.      1008.0      42.000     0.11499    
         TOTAL TIME 1.23552E+07 2.05920E+05  3432.0      143.00     0.39151    
1
 
 SOLVING FOR HEAD 

 OUTPUT CONTROL FOR STRESS PERIOD    3   TIME STEP   43
    SAVE HEAD FOR ALL LAYERS
    SAVE DRAWDOWN FOR ALL LAYERS
    SAVE BUDGET
    PRINT HEAD FOR ALL LAYERS
    PRINT BUDGET
 UBDSV1 SAVING "         STORAGE" ON UNIT  53 AT TIME STEP 43, STRESS PERIOD   3
 UBDSV2 SAVING "   CONSTANT HEAD" ON UNIT  53 AT TIME STEP 43, STRESS PERIOD   3
 UBDSV1 SAVING "FLOW RIGHT FACE " ON UNIT  53 AT TIME STEP 43, STRESS PERIOD   3
 UBDSV1 SAVING "FLOW FRONT FACE " ON UNIT  53 AT TIME STEP 43, STRESS PERIOD   3
1
              HEAD IN LAYER   1 AT END OF TIME STEP  43 IN STRESS PERIOD    3
  ---------------------------------------------------------------------------

            1           2           3           4           5           6           7           8           9          10
 ........................................................................................................................
   1    9.997       9.646       9.221       8.655       7.898       6.911       5.634       4.037       2.141      2.1660E-02
   2    9.996       9.629       9.179       8.577       7.794       6.831       5.590       4.017       2.134      2.1589E-02
   3    9.996       9.592       9.080       8.375       7.491       6.626       5.486       3.974       2.120      2.1442E-02
   4    9.995       9.540       8.921       7.981       6.708       6.221       5.319       3.913       2.101      2.1249E-02
   5    9.995       9.504       8.785       7.464       4.547       5.689       5.175       3.872       2.090      2.1136E-02
   6    9.995       9.540       8.921       7.981       6.709       6.222       5.320       3.913       2.101      2.1250E-02
   7    9.996       9.593       9.080       8.377       7.492       6.627       5.487       3.975       2.120      2.1444E-02
   8    9.996       9.631       9.182       8.582       7.800       6.836       5.593       4.019       2.135      2.1596E-02
   9    9.997       9.651       9.231       8.671       7.917       6.927       5.644       4.042       2.143      2.1680E-02
  10    9.997       9.659       9.250       8.702       7.956       6.958       5.663       4.051       2.146      2.1714E-02

 HEAD WILL BE SAVED ON UNIT   51 AT END OF TIME STEP   43, STRESS PERIOD    3

 DRAWDOWN WILL BE SAVED ON UNIT   52 AT END OF TIME STEP   43, STRESS PERIOD    3
1
  VOLUMETRIC BUDGET FOR ENTIRE MODEL AT END OF TIME STEP   43, STRESS PERIOD   3
  ------------------------------------------------------------------------------

     CUMULATIVE VOLUMES      L**3       RATES FOR THIS TIME STEP      L**3/T
     ------------------                 ------------------------

           IN:                                      IN:
           ---                                      ---
             STORAGE =      375510.0000               STORAGE =        1336.7051
       CONSTANT HEAD =           0.0000         CONSTANT HEAD =           0.0000
               WELLS =           0.0000                 WELLS =           0.0000
     HEAD DEP BOUNDS =        9312.6816       HEAD DEP BOUNDS =         237.0929

            TOTAL IN =      384822.6875              TOTAL IN =        1573.7980

          OUT:                                     OUT:
          ----                                     ----
             STORAGE =           0.0000               STORAGE =           0.0000
       CONSTANT HEAD =           0.0000         CONSTANT HEAD =           0.0000
               WELLS =       21500.0000                 WELLS =         500.0000
     HEAD DEP BOUNDS =      363322.7500       HEAD DEP BOUNDS =        1073.7942

           TOTAL OUT =      384822.7500             TOTAL OUT =        1573.7942

            IN - OUT =      -6.2500E-02              IN - OUT =       3.7842E-03

 PERCENT DISCREPANCY =          -0.00     PERCENT DISCREPANCY =           0.00






         TIME SUMMARY AT END OF TIME STEP   43 IN STRESS PERIOD    3
                    SECONDS     MINUTES      HOURS       DAYS        YEARS
                    -----------------------------------------------------------
   TIME STEP LENGTH  86400.      1440.0      24.000     1.00000     2.73785E-03
 STRESS PERIOD TIME 3.71520E+06  61920.      1032.0      43.000     0.11773    
         TOTAL TIME 1.24416E+07 2.07360E+05  3456.0      144.00     0.39425    
1
 
 SOLVING FOR HEAD 

 OUTPUT CONTROL FOR STRESS PERIOD    3   TIME STEP   44
    SAVE HEAD FOR ALL LAYERS
    SAVE DRAWDOWN FOR ALL LAYERS
    SAVE BUDGET
    PRINT HEAD FOR ALL LAYERS
    PRINT BUDGET
 UBDSV1 SAVING "         STORAGE" ON UNIT  53 AT TIME STEP 44, STRESS PERIOD   3
 UBDSV2 SAVING "   CONSTANT HEAD" ON UNIT  53 AT TIME STEP 44, STRESS PERIOD   3
 UBDSV1 SAVING "FLOW RIGHT FACE " ON UNIT  53 AT TIME STEP 44, STRESS PERIOD   3
 UBDSV1 SAVING "FLOW FRONT FACE " ON UNIT  53 AT TIME STEP 44, STRESS PERIOD   3
1
              HEAD IN LAYER   1 AT END OF TIME STEP  44 IN STRESS PERIOD    3
  ---------------------------------------------------------------------------

            1           2           3           4           5           6           7           8           9          10
 ........................................................................................................................
   1    9.996       9.641       9.210       8.640       7.880       6.891       5.616       4.023       2.133      2.1578E-02
   2    9.996       9.623       9.167       8.560       7.773       6.810       5.570       4.002       2.126      2.1503E-02
   3    9.996       9.585       9.065       8.354       7.465       6.600       5.464       3.958       2.111      2.1349E-02
   4    9.995       9.531       8.904       7.956       6.679       6.192       5.294       3.895       2.091      2.1150E-02
   5    9.995       9.495       8.767       7.438       4.514       5.658       5.149       3.853       2.080      2.1034E-02
   6    9.995       9.531       8.904       7.957       6.679       6.192       5.295       3.895       2.091      2.1150E-02
   7    9.996       9.585       9.066       8.356       7.467       6.602       5.465       3.958       2.111      2.1351E-02
   8    9.996       9.625       9.170       8.565       7.779       6.815       5.574       4.004       2.127      2.1511E-02
   9    9.997       9.646       9.221       8.657       7.900       6.908       5.627       4.029       2.135      2.1600E-02
  10    9.997       9.654       9.241       8.689       7.940       6.941       5.646       4.038       2.139      2.1636E-02

 HEAD WILL BE SAVED ON UNIT   51 AT END OF TIME STEP   44, STRESS PERIOD    3

 DRAWDOWN WILL BE SAVED ON UNIT   52 AT END OF TIME STEP   44, STRESS PERIOD    3
1
  VOLUMETRIC BUDGET FOR ENTIRE MODEL AT END OF TIME STEP   44, STRESS PERIOD   3
  ------------------------------------------------------------------------------

     CUMULATIVE VOLUMES      L**3       RATES FOR THIS TIME STEP      L**3/T
     ------------------                 ------------------------

           IN:                                      IN:
           ---                                      ---
             STORAGE =      376838.2812               STORAGE =        1328.2792
       CONSTANT HEAD =           0.0000         CONSTANT HEAD =           0.0000
               WELLS =           0.0000                 WELLS =           0.0000
     HEAD DEP BOUNDS =        9553.7090       HEAD DEP BOUNDS =         241.0274

            TOTAL IN =      386392.0000              TOTAL IN =        1569.3066

          OUT:                                     OUT:
          ----                                     ----
             STORAGE =           0.0000               STORAGE =           0.0000
       CONSTANT HEAD =           0.0000         CONSTANT HEAD =           0.0000
               WELLS =       22000.0000                 WELLS =         500.0000
     HEAD DEP BOUNDS =      364392.0625       HEAD DEP BOUNDS =        1069.3149

           TOTAL OUT =      386392.0625             TOTAL OUT =        1569.3149

            IN - OUT =      -6.2500E-02              IN - OUT =      -8.3008E-03

 PERCENT DISCREPANCY =          -0.00     PERCENT DISCREPANCY =          -0.00






         TIME SUMMARY AT END OF TIME STEP   44 IN STRESS PERIOD    3
                    SECONDS     MINUTES      HOURS       DAYS        YEARS
                    -----------------------------------------------------------
   TIME STEP LENGTH  86400.      1440.0      24.000     1.00000     2.73785E-03
 STRESS PERIOD TIME 3.80160E+06  63360.      1056.0      44.000     0.12047    
         TOTAL TIME 1.25280E+07 2.08800E+05  3480.0      145.00     0.39699    
1
 
 SOLVING FOR HEAD 

 OUTPUT CONTROL FOR STRESS PERIOD    3   TIME STEP   45
    SAVE HEAD FOR ALL LAYERS
    SAVE DRAWDOWN FOR ALL LAYERS
    SAVE BUDGET
    PRINT HEAD FOR ALL LAYERS
    PRINT BUDGET
 UBDSV1 SAVING "         STORAGE" ON UNIT  53 AT TIME STEP 45, STRESS PERIOD   3
 UBDSV2 SAVING "   CONSTANT HEAD" ON UNIT  53 AT TIME STEP 45, STRESS PERIOD   3
 UBDSV1 SAVING "FLOW RIGHT FACE " ON UNIT  53 AT TIME STEP 45, STRESS PERIOD   3
 UBDSV1 SAVING "FLOW FRONT FACE " ON UNIT  53 AT TIME STEP 45, STRESS PERIOD   3
1
              HEAD IN LAYER   1 AT END OF TIME STEP  45 IN STRESS PERIOD    3
  ---------------------------------------------------------------------------

            1           2           3           4           5           6           7           8           9          10
 ........................................................................................................................
   1    9.996       9.636       9.200       8.624       7.861       6.871       5.598       4.009       2.125      2.1497E-02
   2    9.996       9.617       9.155       8.542       7.752       6.788       5.551       3.987       2.118      2.1418E-02
   3    9.996       9.578       9.051       8.334       7.441       6.575       5.442       3.941       2.102      2.1257E-02
   4    9.995       9.523       8.887       7.932       6.649       6.163       5.270       3.877       2.082      2.1051E-02
   5    9.995       9.486       8.749       7.412       4.482       5.627       5.123       3.835       2.070      2.0932E-02
   6    9.995       9.523       8.888       7.933       6.650       6.163       5.270       3.877       2.082      2.1051E-02
   7    9.996       9.578       9.052       8.335       7.443       6.577       5.443       3.942       2.102      2.1260E-02
   8    9.996       9.619       9.158       8.548       7.759       6.794       5.554       3.989       2.118      2.1426E-02
   9    9.996       9.641       9.211       8.643       7.882       6.889       5.609       4.015       2.128      2.1521E-02
  10    9.997       9.650       9.232       8.676       7.924       6.923       5.630       4.025       2.131      2.1559E-02

 HEAD WILL BE SAVED ON UNIT   51 AT END OF TIME STEP   45, STRESS PERIOD    3

 DRAWDOWN WILL BE SAVED ON UNIT   52 AT END OF TIME STEP   45, STRESS PERIOD    3
1
  VOLUMETRIC BUDGET FOR ENTIRE MODEL AT END OF TIME STEP   45, STRESS PERIOD   3
  ------------------------------------------------------------------------------

     CUMULATIVE VOLUMES      L**3       RATES FOR THIS TIME STEP      L**3/T
     ------------------                 ------------------------

           IN:                                      IN:
           ---                                      ---
             STORAGE =      378158.1562               STORAGE =        1319.8850
       CONSTANT HEAD =           0.0000         CONSTANT HEAD =           0.0000
               WELLS =           0.0000                 WELLS =           0.0000
     HEAD DEP BOUNDS =        9798.6875       HEAD DEP BOUNDS =         244.9786

            TOTAL IN =      387956.8438              TOTAL IN =        1564.8636

          OUT:                                     OUT:
          ----                                     ----
             STORAGE =           0.0000               STORAGE =           0.0000
       CONSTANT HEAD =           0.0000         CONSTANT HEAD =           0.0000
               WELLS =       22500.0000                 WELLS =         500.0000
     HEAD DEP BOUNDS =      365456.9062       HEAD DEP BOUNDS =        1064.8574

           TOTAL OUT =      387956.9062             TOTAL OUT =        1564.8574

            IN - OUT =      -6.2500E-02              IN - OUT =       6.2256E-03

 PERCENT DISCREPANCY =          -0.00     PERCENT DISCREPANCY =           0.00






         TIME SUMMARY AT END OF TIME STEP   45 IN STRESS PERIOD    3
                    SECONDS     MINUTES      HOURS       DAYS        YEARS
                    -----------------------------------------------------------
   TIME STEP LENGTH  86400.      1440.0      24.000     1.00000     2.73785E-03
 STRESS PERIOD TIME 3.88800E+06  64800.      1080.0      45.000     0.12320    
         TOTAL TIME 1.26144E+07 2.10240E+05  3504.0      146.00     0.39973    
1
 
 SOLVING FOR HEAD 

 OUTPUT CONTROL FOR STRESS PERIOD    3   TIME STEP   46
    SAVE HEAD FOR ALL LAYERS
    SAVE DRAWDOWN FOR ALL LAYERS
    SAVE BUDGET
    PRINT HEAD FOR ALL LAYERS
    PRINT BUDGET
 UBDSV1 SAVING "         STORAGE" ON UNIT  53 AT TIME STEP 46, STRESS PERIOD   3
 UBDSV2 SAVING "   CONSTANT HEAD" ON UNIT  53 AT TIME STEP 46, STRESS PERIOD   3
 UBDSV1 SAVING "FLOW RIGHT FACE " ON UNIT  53 AT TIME STEP 46, STRESS PERIOD   3
 UBDSV1 SAVING "FLOW FRONT FACE " ON UNIT  53 AT TIME STEP 46, STRESS PERIOD   3
1
              HEAD IN LAYER   1 AT END OF TIME STEP  46 IN STRESS PERIOD    3
  ---------------------------------------------------------------------------

            1           2           3           4           5           6           7           8           9          10
 ........................................................................................................................
   1    9.996       9.630       9.189       8.609       7.842       6.852       5.580       3.995       2.118      2.1416E-02
   2    9.996       9.611       9.143       8.525       7.731       6.766       5.531       3.973       2.109      2.1333E-02
   3    9.996       9.571       9.037       8.313       7.416       6.550       5.420       3.925       2.093      2.1166E-02
   4    9.995       9.515       8.871       7.908       6.621       6.134       5.245       3.859       2.072      2.0952E-02
   5    9.995       9.477       8.731       7.386       4.450       5.596       5.097       3.816       2.060      2.0830E-02
   6    9.995       9.515       8.871       7.909       6.621       6.135       5.245       3.860       2.072      2.0953E-02
   7    9.996       9.571       9.038       8.315       7.418       6.552       5.421       3.926       2.093      2.1168E-02
   8    9.996       9.613       9.147       8.531       7.738       6.773       5.535       3.975       2.110      2.1342E-02
   9    9.996       9.636       9.201       8.628       7.865       6.871       5.592       4.001       2.120      2.1442E-02
  10    9.997       9.645       9.223       8.663       7.908       6.906       5.614       4.012       2.124      2.1483E-02

 HEAD WILL BE SAVED ON UNIT   51 AT END OF TIME STEP   46, STRESS PERIOD    3

 DRAWDOWN WILL BE SAVED ON UNIT   52 AT END OF TIME STEP   46, STRESS PERIOD    3
1
  VOLUMETRIC BUDGET FOR ENTIRE MODEL AT END OF TIME STEP   46, STRESS PERIOD   3
  ------------------------------------------------------------------------------

     CUMULATIVE VOLUMES      L**3       RATES FOR THIS TIME STEP      L**3/T
     ------------------                 ------------------------

           IN:                                      IN:
           ---                                      ---
             STORAGE =      379469.6875               STORAGE =        1311.5248
       CONSTANT HEAD =           0.0000         CONSTANT HEAD =           0.0000
               WELLS =           0.0000                 WELLS =           0.0000
     HEAD DEP BOUNDS =       10047.5928       HEAD DEP BOUNDS =         248.9055

            TOTAL IN =      389517.2812              TOTAL IN =        1560.4303

          OUT:                                     OUT:
          ----                                     ----
             STORAGE =           0.0000               STORAGE =           0.0000
       CONSTANT HEAD =           0.0000         CONSTANT HEAD =           0.0000
               WELLS =       23000.0000                 WELLS =         500.0000
     HEAD DEP BOUNDS =      366517.3438       HEAD DEP BOUNDS =        1060.4280

           TOTAL OUT =      389517.3438             TOTAL OUT =        1560.4280

            IN - OUT =      -6.2500E-02              IN - OUT =       2.3193E-03

 PERCENT DISCREPANCY =          -0.00     PERCENT DISCREPANCY =           0.00






         TIME SUMMARY AT END OF TIME STEP   46 IN STRESS PERIOD    3
                    SECONDS     MINUTES      HOURS       DAYS        YEARS
                    -----------------------------------------------------------
   TIME STEP LENGTH  86400.      1440.0      24.000     1.00000     2.73785E-03
 STRESS PERIOD TIME 3.97440E+06  66240.      1104.0      46.000     0.12594    
         TOTAL TIME 1.27008E+07 2.11680E+05  3528.0      147.00     0.40246    
1
 
 SOLVING FOR HEAD 

 OUTPUT CONTROL FOR STRESS PERIOD    3   TIME STEP   47
    SAVE HEAD FOR ALL LAYERS
    SAVE DRAWDOWN FOR ALL LAYERS
    SAVE BUDGET
    PRINT HEAD FOR ALL LAYERS
    PRINT BUDGET
 UBDSV1 SAVING "         STORAGE" ON UNIT  53 AT TIME STEP 47, STRESS PERIOD   3
 UBDSV2 SAVING "   CONSTANT HEAD" ON UNIT  53 AT TIME STEP 47, STRESS PERIOD   3
 UBDSV1 SAVING "FLOW RIGHT FACE " ON UNIT  53 AT TIME STEP 47, STRESS PERIOD   3
 UBDSV1 SAVING "FLOW FRONT FACE " ON UNIT  53 AT TIME STEP 47, STRESS PERIOD   3
1
              HEAD IN LAYER   1 AT END OF TIME STEP  47 IN STRESS PERIOD    3
  ---------------------------------------------------------------------------

            1           2           3           4           5           6           7           8           9          10
 ........................................................................................................................
   1    9.996       9.625       9.178       8.594       7.824       6.832       5.562       3.981       2.110      2.1335E-02
   2    9.996       9.605       9.131       8.508       7.710       6.745       5.512       3.958       2.101      2.1249E-02
   3    9.996       9.563       9.022       8.293       7.392       6.525       5.398       3.909       2.084      2.1074E-02
   4    9.995       9.506       8.854       7.884       6.592       6.106       5.221       3.842       2.063      2.0854E-02
   5    9.995       9.469       8.714       7.361       4.419       5.566       5.071       3.798       2.050      2.0729E-02
   6    9.995       9.507       8.855       7.885       6.593       6.106       5.221       3.842       2.063      2.0855E-02
   7    9.996       9.564       9.024       8.295       7.394       6.527       5.399       3.910       2.084      2.1077E-02
   8    9.996       9.607       9.135       8.515       7.718       6.752       5.516       3.960       2.102      2.1259E-02
   9    9.996       9.631       9.192       8.614       7.848       6.853       5.575       3.988       2.112      2.1363E-02
  10    9.996       9.640       9.213       8.650       7.892       6.889       5.597       3.999       2.117      2.1407E-02

 HEAD WILL BE SAVED ON UNIT   51 AT END OF TIME STEP   47, STRESS PERIOD    3

 DRAWDOWN WILL BE SAVED ON UNIT   52 AT END OF TIME STEP   47, STRESS PERIOD    3
1
  VOLUMETRIC BUDGET FOR ENTIRE MODEL AT END OF TIME STEP   47, STRESS PERIOD   3
  ------------------------------------------------------------------------------

     CUMULATIVE VOLUMES      L**3       RATES FOR THIS TIME STEP      L**3/T
     ------------------                 ------------------------

           IN:                                      IN:
           ---                                      ---
             STORAGE =      380772.8750               STORAGE =        1303.1885
       CONSTANT HEAD =           0.0000         CONSTANT HEAD =           0.0000
               WELLS =           0.0000                 WELLS =           0.0000
     HEAD DEP BOUNDS =       10300.4268       HEAD DEP BOUNDS =         252.8336

            TOTAL IN =      391073.3125              TOTAL IN =        1556.0221

          OUT:                                     OUT:
          ----                                     ----
             STORAGE =           0.0000               STORAGE =           0.0000
       CONSTANT HEAD =           0.0000         CONSTANT HEAD =           0.0000
               WELLS =       23500.0000                 WELLS =         500.0000
     HEAD DEP BOUNDS =      367573.3750       HEAD DEP BOUNDS =        1056.0195

           TOTAL OUT =      391073.3750             TOTAL OUT =        1556.0195

            IN - OUT =      -6.2500E-02              IN - OUT =       2.5635E-03

 PERCENT DISCREPANCY =          -0.00     PERCENT DISCREPANCY =           0.00






         TIME SUMMARY AT END OF TIME STEP   47 IN STRESS PERIOD    3
                    SECONDS     MINUTES      HOURS       DAYS        YEARS
                    -----------------------------------------------------------
   TIME STEP LENGTH  86400.      1440.0      24.000     1.00000     2.73785E-03
 STRESS PERIOD TIME 4.06080E+06  67680.      1128.0      47.000     0.12868    
         TOTAL TIME 1.27872E+07 2.13120E+05  3552.0      148.00     0.40520    
1
 
 SOLVING FOR HEAD 

 OUTPUT CONTROL FOR STRESS PERIOD    3   TIME STEP   48
    SAVE HEAD FOR ALL LAYERS
    SAVE DRAWDOWN FOR ALL LAYERS
    SAVE BUDGET
    PRINT HEAD FOR ALL LAYERS
    PRINT BUDGET
 UBDSV1 SAVING "         STORAGE" ON UNIT  53 AT TIME STEP 48, STRESS PERIOD   3
 UBDSV2 SAVING "   CONSTANT HEAD" ON UNIT  53 AT TIME STEP 48, STRESS PERIOD   3
 UBDSV1 SAVING "FLOW RIGHT FACE " ON UNIT  53 AT TIME STEP 48, STRESS PERIOD   3
 UBDSV1 SAVING "FLOW FRONT FACE " ON UNIT  53 AT TIME STEP 48, STRESS PERIOD   3
1
              HEAD IN LAYER   1 AT END OF TIME STEP  48 IN STRESS PERIOD    3
  ---------------------------------------------------------------------------

            1           2           3           4           5           6           7           8           9          10
 ........................................................................................................................
   1    9.996       9.619       9.168       8.578       7.805       6.813       5.544       3.967       2.102      2.1255E-02
   2    9.996       9.599       9.119       8.491       7.690       6.724       5.492       3.943       2.093      2.1165E-02
   3    9.996       9.556       9.008       8.272       7.367       6.500       5.376       3.893       2.075      2.0983E-02
   4    9.995       9.498       8.838       7.861       6.564       6.078       5.197       3.824       2.053      2.0757E-02
   5    9.995       9.460       8.697       7.336       4.388       5.536       5.046       3.779       2.040      2.0629E-02
   6    9.995       9.498       8.839       7.861       6.565       6.078       5.197       3.824       2.053      2.0758E-02
   7    9.996       9.557       9.010       8.274       7.370       6.502       5.378       3.893       2.076      2.0987E-02
   8    9.996       9.601       9.123       8.498       7.698       6.731       5.497       3.946       2.094      2.1175E-02
   9    9.996       9.626       9.182       8.600       7.830       6.834       5.558       3.975       2.105      2.1286E-02
  10    9.996       9.636       9.204       8.637       7.876       6.872       5.581       3.986       2.109      2.1332E-02

 HEAD WILL BE SAVED ON UNIT   51 AT END OF TIME STEP   48, STRESS PERIOD    3

 DRAWDOWN WILL BE SAVED ON UNIT   52 AT END OF TIME STEP   48, STRESS PERIOD    3
1
  VOLUMETRIC BUDGET FOR ENTIRE MODEL AT END OF TIME STEP   48, STRESS PERIOD   3
  ------------------------------------------------------------------------------

     CUMULATIVE VOLUMES      L**3       RATES FOR THIS TIME STEP      L**3/T
     ------------------                 ------------------------

           IN:                                      IN:
           ---                                      ---
             STORAGE =      382067.7500               STORAGE =        1294.8840
       CONSTANT HEAD =           0.0000         CONSTANT HEAD =           0.0000
               WELLS =           0.0000                 WELLS =           0.0000
     HEAD DEP BOUNDS =       10557.1885       HEAD DEP BOUNDS =         256.7617

            TOTAL IN =      392624.9375              TOTAL IN =        1551.6458

          OUT:                                     OUT:
          ----                                     ----
             STORAGE =           0.0000               STORAGE =           0.0000
       CONSTANT HEAD =           0.0000         CONSTANT HEAD =           0.0000
               WELLS =       24000.0000                 WELLS =         500.0000
     HEAD DEP BOUNDS =      368625.0000       HEAD DEP BOUNDS =        1051.6327

           TOTAL OUT =      392625.0000             TOTAL OUT =        1551.6327

            IN - OUT =      -6.2500E-02              IN - OUT =       1.3062E-02

 PERCENT DISCREPANCY =          -0.00     PERCENT DISCREPANCY =           0.00






         TIME SUMMARY AT END OF TIME STEP   48 IN STRESS PERIOD    3
                    SECONDS     MINUTES      HOURS       DAYS        YEARS
                    -----------------------------------------------------------
   TIME STEP LENGTH  86400.      1440.0      24.000     1.00000     2.73785E-03
 STRESS PERIOD TIME 4.14720E+06  69120.      1152.0      48.000     0.13142    
         TOTAL TIME 1.28736E+07 2.14560E+05  3576.0      149.00     0.40794    
1
 
 SOLVING FOR HEAD 

 OUTPUT CONTROL FOR STRESS PERIOD    3   TIME STEP   49
    SAVE HEAD FOR ALL LAYERS
    SAVE DRAWDOWN FOR ALL LAYERS
    SAVE BUDGET
    PRINT HEAD FOR ALL LAYERS
    PRINT BUDGET
 UBDSV1 SAVING "         STORAGE" ON UNIT  53 AT TIME STEP 49, STRESS PERIOD   3
 UBDSV2 SAVING "   CONSTANT HEAD" ON UNIT  53 AT TIME STEP 49, STRESS PERIOD   3
 UBDSV1 SAVING "FLOW RIGHT FACE " ON UNIT  53 AT TIME STEP 49, STRESS PERIOD   3
 UBDSV1 SAVING "FLOW FRONT FACE " ON UNIT  53 AT TIME STEP 49, STRESS PERIOD   3
1
              HEAD IN LAYER   1 AT END OF TIME STEP  49 IN STRESS PERIOD    3
  ---------------------------------------------------------------------------

            1           2           3           4           5           6           7           8           9          10
 ........................................................................................................................
   1    9.996       9.614       9.157       8.563       7.787       6.793       5.526       3.953       2.094      2.1175E-02
   2    9.996       9.593       9.106       8.473       7.669       6.702       5.473       3.928       2.085      2.1081E-02
   3    9.996       9.549       8.994       8.252       7.343       6.476       5.355       3.876       2.067      2.0893E-02
   4    9.995       9.490       8.822       7.838       6.536       6.050       5.173       3.807       2.044      2.0660E-02
   5    9.995       9.452       8.680       7.311       4.357       5.507       5.021       3.761       2.031      2.0529E-02
   6    9.995       9.490       8.823       7.838       6.537       6.051       5.173       3.807       2.044      2.0661E-02
   7    9.996       9.550       8.996       8.254       7.346       6.478       5.356       3.877       2.067      2.0897E-02
   8    9.996       9.595       9.112       8.481       7.678       6.710       5.478       3.931       2.086      2.1093E-02
   9    9.996       9.621       9.172       8.585       7.813       6.816       5.541       3.961       2.097      2.1208E-02
  10    9.996       9.631       9.195       8.624       7.860       6.855       5.565       3.974       2.102      2.1257E-02

 HEAD WILL BE SAVED ON UNIT   51 AT END OF TIME STEP   49, STRESS PERIOD    3

 DRAWDOWN WILL BE SAVED ON UNIT   52 AT END OF TIME STEP   49, STRESS PERIOD    3
1
  VOLUMETRIC BUDGET FOR ENTIRE MODEL AT END OF TIME STEP   49, STRESS PERIOD   3
  ------------------------------------------------------------------------------

     CUMULATIVE VOLUMES      L**3       RATES FOR THIS TIME STEP      L**3/T
     ------------------                 ------------------------

           IN:                                      IN:
           ---                                      ---
             STORAGE =      383354.3438               STORAGE =        1286.6022
       CONSTANT HEAD =           0.0000         CONSTANT HEAD =           0.0000
               WELLS =           0.0000                 WELLS =           0.0000
     HEAD DEP BOUNDS =       10817.8574       HEAD DEP BOUNDS =         260.6692

            TOTAL IN =      394172.1875              TOTAL IN =        1547.2714

          OUT:                                     OUT:
          ----                                     ----
             STORAGE =           0.0000               STORAGE =           0.0000
       CONSTANT HEAD =           0.0000         CONSTANT HEAD =           0.0000
               WELLS =       24500.0000                 WELLS =         500.0000
     HEAD DEP BOUNDS =      369672.2812       HEAD DEP BOUNDS =        1047.2742

           TOTAL OUT =      394172.2812             TOTAL OUT =        1547.2742

            IN - OUT =      -9.3750E-02              IN - OUT =      -2.8076E-03

 PERCENT DISCREPANCY =          -0.00     PERCENT DISCREPANCY =          -0.00






         TIME SUMMARY AT END OF TIME STEP   49 IN STRESS PERIOD    3
                    SECONDS     MINUTES      HOURS       DAYS        YEARS
                    -----------------------------------------------------------
   TIME STEP LENGTH  86400.      1440.0      24.000     1.00000     2.73785E-03
 STRESS PERIOD TIME 4.23360E+06  70560.      1176.0      49.000     0.13415    
         TOTAL TIME 1.29600E+07 2.16000E+05  3600.0      150.00     0.41068    
1
 
 SOLVING FOR HEAD 

 OUTPUT CONTROL FOR STRESS PERIOD    3   TIME STEP   50
    SAVE HEAD FOR ALL LAYERS
    SAVE DRAWDOWN FOR ALL LAYERS
    SAVE BUDGET
    PRINT HEAD FOR ALL LAYERS
    PRINT BUDGET
 UBDSV1 SAVING "         STORAGE" ON UNIT  53 AT TIME STEP 50, STRESS PERIOD   3
 UBDSV2 SAVING "   CONSTANT HEAD" ON UNIT  53 AT TIME STEP 50, STRESS PERIOD   3
 UBDSV1 SAVING "FLOW RIGHT FACE " ON UNIT  53 AT TIME STEP 50, STRESS PERIOD   3
 UBDSV1 SAVING "FLOW FRONT FACE " ON UNIT  53 AT TIME STEP 50, STRESS PERIOD   3
1
              HEAD IN LAYER   1 AT END OF TIME STEP  50 IN STRESS PERIOD    3
  ---------------------------------------------------------------------------

            1           2           3           4           5           6           7           8           9          10
 ........................................................................................................................
   1    9.996       9.608       9.146       8.547       7.768       6.774       5.508       3.940       2.087      2.1096E-02
   2    9.996       9.587       9.094       8.456       7.649       6.681       5.454       3.914       2.077      2.0998E-02
   3    9.995       9.542       8.980       8.232       7.319       6.452       5.333       3.860       2.058      2.0803E-02
   4    9.995       9.482       8.806       7.815       6.509       6.022       5.149       3.789       2.034      2.0564E-02
   5    9.995       9.443       8.663       7.286       4.327       5.478       4.996       3.743       2.021      2.0430E-02
   6    9.995       9.482       8.807       7.815       6.510       6.023       5.149       3.789       2.034      2.0565E-02
   7    9.996       9.543       8.982       8.235       7.322       6.454       5.335       3.861       2.058      2.0807E-02
   8    9.996       9.589       9.100       8.464       7.658       6.689       5.460       3.917       2.078      2.1011E-02
   9    9.996       9.616       9.162       8.571       7.796       6.798       5.524       3.948       2.090      2.1131E-02
  10    9.996       9.626       9.186       8.611       7.844       6.838       5.549       3.961       2.095      2.1183E-02

 HEAD WILL BE SAVED ON UNIT   51 AT END OF TIME STEP   50, STRESS PERIOD    3

 DRAWDOWN WILL BE SAVED ON UNIT   52 AT END OF TIME STEP   50, STRESS PERIOD    3
1
  VOLUMETRIC BUDGET FOR ENTIRE MODEL AT END OF TIME STEP   50, STRESS PERIOD   3
  ------------------------------------------------------------------------------

     CUMULATIVE VOLUMES      L**3       RATES FOR THIS TIME STEP      L**3/T
     ------------------                 ------------------------

           IN:                                      IN:
           ---                                      ---
             STORAGE =      384632.7188               STORAGE =        1278.3689
       CONSTANT HEAD =           0.0000         CONSTANT HEAD =           0.0000
               WELLS =           0.0000                 WELLS =           0.0000
     HEAD DEP BOUNDS =       11082.4199       HEAD DEP BOUNDS =         264.5620

            TOTAL IN =      395715.1250              TOTAL IN =        1542.9309

          OUT:                                     OUT:
          ----                                     ----
             STORAGE =           0.0000               STORAGE =           0.0000
       CONSTANT HEAD =           0.0000         CONSTANT HEAD =           0.0000
               WELLS =       25000.0000                 WELLS =         500.0000
     HEAD DEP BOUNDS =      370715.2188       HEAD DEP BOUNDS =        1042.9398

           TOTAL OUT =      395715.2188             TOTAL OUT =        1542.9398

            IN - OUT =      -9.3750E-02              IN - OUT =      -8.9111E-03

 PERCENT DISCREPANCY =          -0.00     PERCENT DISCREPANCY =          -0.00






         TIME SUMMARY AT END OF TIME STEP   50 IN STRESS PERIOD    3
                    SECONDS     MINUTES      HOURS       DAYS        YEARS
                    -----------------------------------------------------------
   TIME STEP LENGTH  86400.      1440.0      24.000     1.00000     2.73785E-03
 STRESS PERIOD TIME 4.32000E+06  72000.      1200.0      50.000     0.13689    
         TOTAL TIME 1.30464E+07 2.17440E+05  3624.0      151.00     0.41342    
1
 
 SOLVING FOR HEAD 

 OUTPUT CONTROL FOR STRESS PERIOD    3   TIME STEP   51
    SAVE HEAD FOR ALL LAYERS
    SAVE DRAWDOWN FOR ALL LAYERS
    SAVE BUDGET
    PRINT HEAD FOR ALL LAYERS
    PRINT BUDGET
 UBDSV1 SAVING "         STORAGE" ON UNIT  53 AT TIME STEP 51, STRESS PERIOD   3
 UBDSV2 SAVING "   CONSTANT HEAD" ON UNIT  53 AT TIME STEP 51, STRESS PERIOD   3
 UBDSV1 SAVING "FLOW RIGHT FACE " ON UNIT  53 AT TIME STEP 51, STRESS PERIOD   3
 UBDSV1 SAVING "FLOW FRONT FACE " ON UNIT  53 AT TIME STEP 51, STRESS PERIOD   3
1
              HEAD IN LAYER   1 AT END OF TIME STEP  51 IN STRESS PERIOD    3
  ---------------------------------------------------------------------------

            1           2           3           4           5           6           7           8           9          10
 ........................................................................................................................
   1    9.996       9.603       9.135       8.532       7.750       6.755       5.490       3.926       2.079      2.1017E-02
   2    9.996       9.581       9.082       8.439       7.628       6.660       5.435       3.899       2.069      2.0915E-02
   3    9.995       9.535       8.966       8.212       7.296       6.427       5.312       3.845       2.049      2.0714E-02
   4    9.995       9.474       8.790       7.792       6.482       5.995       5.125       3.772       2.025      2.0468E-02
   5    9.994       9.435       8.646       7.262       4.298       5.449       4.972       3.725       2.012      2.0332E-02
   6    9.995       9.474       8.791       7.793       6.483       5.996       5.126       3.772       2.025      2.0469E-02
   7    9.995       9.536       8.968       8.215       7.299       6.430       5.314       3.846       2.050      2.0718E-02
   8    9.996       9.583       9.088       8.448       7.638       6.669       5.441       3.903       2.070      2.0929E-02
   9    9.996       9.610       9.152       8.557       7.779       6.780       5.507       3.935       2.083      2.1055E-02
  10    9.996       9.622       9.177       8.598       7.829       6.821       5.533       3.948       2.088      2.1109E-02

 HEAD WILL BE SAVED ON UNIT   51 AT END OF TIME STEP   51, STRESS PERIOD    3

 DRAWDOWN WILL BE SAVED ON UNIT   52 AT END OF TIME STEP   51, STRESS PERIOD    3
1
  VOLUMETRIC BUDGET FOR ENTIRE MODEL AT END OF TIME STEP   51, STRESS PERIOD   3
  ------------------------------------------------------------------------------

     CUMULATIVE VOLUMES      L**3       RATES FOR THIS TIME STEP      L**3/T
     ------------------                 ------------------------

           IN:                                      IN:
           ---                                      ---
             STORAGE =      385902.8750               STORAGE =        1270.1696
       CONSTANT HEAD =           0.0000         CONSTANT HEAD =           0.0000
               WELLS =           0.0000                 WELLS =           0.0000
     HEAD DEP BOUNDS =       11350.8857       HEAD DEP BOUNDS =         268.4657

            TOTAL IN =      397253.7500              TOTAL IN =        1538.6353

          OUT:                                     OUT:
          ----                                     ----
             STORAGE =           0.0000               STORAGE =           0.0000
       CONSTANT HEAD =           0.0000         CONSTANT HEAD =           0.0000
               WELLS =       25500.0000                 WELLS =         500.0000
     HEAD DEP BOUNDS =      371753.8438       HEAD DEP BOUNDS =        1038.6290

           TOTAL OUT =      397253.8438             TOTAL OUT =        1538.6290

            IN - OUT =      -9.3750E-02              IN - OUT =       6.2256E-03

 PERCENT DISCREPANCY =          -0.00     PERCENT DISCREPANCY =           0.00






         TIME SUMMARY AT END OF TIME STEP   51 IN STRESS PERIOD    3
                    SECONDS     MINUTES      HOURS       DAYS        YEARS
                    -----------------------------------------------------------
   TIME STEP LENGTH  86400.      1440.0      24.000     1.00000     2.73785E-03
 STRESS PERIOD TIME 4.40640E+06  73440.      1224.0      51.000     0.13963    
         TOTAL TIME 1.31328E+07 2.18880E+05  3648.0      152.00     0.41615    
1
 
 SOLVING FOR HEAD 

 OUTPUT CONTROL FOR STRESS PERIOD    3   TIME STEP   52
    SAVE HEAD FOR ALL LAYERS
    SAVE DRAWDOWN FOR ALL LAYERS
    SAVE BUDGET
    PRINT HEAD FOR ALL LAYERS
    PRINT BUDGET
 UBDSV1 SAVING "         STORAGE" ON UNIT  53 AT TIME STEP 52, STRESS PERIOD   3
 UBDSV2 SAVING "   CONSTANT HEAD" ON UNIT  53 AT TIME STEP 52, STRESS PERIOD   3
 UBDSV1 SAVING "FLOW RIGHT FACE " ON UNIT  53 AT TIME STEP 52, STRESS PERIOD   3
 UBDSV1 SAVING "FLOW FRONT FACE " ON UNIT  53 AT TIME STEP 52, STRESS PERIOD   3
1
              HEAD IN LAYER   1 AT END OF TIME STEP  52 IN STRESS PERIOD    3
  ---------------------------------------------------------------------------

            1           2           3           4           5           6           7           8           9          10
 ........................................................................................................................
   1    9.996       9.597       9.124       8.516       7.731       6.735       5.473       3.912       2.071      2.0938E-02
   2    9.996       9.574       9.070       8.422       7.608       6.639       5.416       3.885       2.061      2.0832E-02
   3    9.995       9.528       8.952       8.192       7.272       6.404       5.291       3.829       2.041      2.0625E-02
   4    9.995       9.466       8.774       7.769       6.455       5.969       5.102       3.755       2.016      2.0373E-02
   5    9.994       9.426       8.630       7.238       4.268       5.421       4.948       3.708       2.002      2.0234E-02
   6    9.995       9.466       8.775       7.770       6.456       5.969       5.103       3.755       2.016      2.0374E-02
   7    9.995       9.529       8.954       8.195       7.276       6.407       5.293       3.830       2.041      2.0630E-02
   8    9.996       9.578       9.077       8.431       7.619       6.648       5.422       3.888       2.062      2.0847E-02
   9    9.996       9.605       9.142       8.543       7.762       6.762       5.491       3.922       2.075      2.0979E-02
  10    9.996       9.617       9.168       8.585       7.813       6.804       5.518       3.936       2.081      2.1036E-02

 HEAD WILL BE SAVED ON UNIT   51 AT END OF TIME STEP   52, STRESS PERIOD    3

 DRAWDOWN WILL BE SAVED ON UNIT   52 AT END OF TIME STEP   52, STRESS PERIOD    3
1
  VOLUMETRIC BUDGET FOR ENTIRE MODEL AT END OF TIME STEP   52, STRESS PERIOD   3
  ------------------------------------------------------------------------------

     CUMULATIVE VOLUMES      L**3       RATES FOR THIS TIME STEP      L**3/T
     ------------------                 ------------------------

           IN:                                      IN:
           ---                                      ---
             STORAGE =      387164.8750               STORAGE =        1262.0037
       CONSTANT HEAD =           0.0000         CONSTANT HEAD =           0.0000
               WELLS =           0.0000                 WELLS =           0.0000
     HEAD DEP BOUNDS =       11623.2256       HEAD DEP BOUNDS =         272.3398

            TOTAL IN =      398788.0938              TOTAL IN =        1534.3435

          OUT:                                     OUT:
          ----                                     ----
             STORAGE =           0.0000               STORAGE =           0.0000
       CONSTANT HEAD =           0.0000         CONSTANT HEAD =           0.0000
               WELLS =       26000.0000                 WELLS =         500.0000
     HEAD DEP BOUNDS =      372788.1875       HEAD DEP BOUNDS =        1034.3409

           TOTAL OUT =      398788.1875             TOTAL OUT =        1534.3409

            IN - OUT =      -9.3750E-02              IN - OUT =       2.5635E-03

 PERCENT DISCREPANCY =          -0.00     PERCENT DISCREPANCY =           0.00






         TIME SUMMARY AT END OF TIME STEP   52 IN STRESS PERIOD    3
                    SECONDS     MINUTES      HOURS       DAYS        YEARS
                    -----------------------------------------------------------
   TIME STEP LENGTH  86400.      1440.0      24.000     1.00000     2.73785E-03
 STRESS PERIOD TIME 4.49280E+06  74880.      1248.0      52.000     0.14237    
         TOTAL TIME 1.32192E+07 2.20320E+05  3672.0      153.00     0.41889    
1
 
 SOLVING FOR HEAD 

 OUTPUT CONTROL FOR STRESS PERIOD    3   TIME STEP   53
    SAVE HEAD FOR ALL LAYERS
    SAVE DRAWDOWN FOR ALL LAYERS
    SAVE BUDGET
    PRINT HEAD FOR ALL LAYERS
    PRINT BUDGET
 UBDSV1 SAVING "         STORAGE" ON UNIT  53 AT TIME STEP 53, STRESS PERIOD   3
 UBDSV2 SAVING "   CONSTANT HEAD" ON UNIT  53 AT TIME STEP 53, STRESS PERIOD   3
 UBDSV1 SAVING "FLOW RIGHT FACE " ON UNIT  53 AT TIME STEP 53, STRESS PERIOD   3
 UBDSV1 SAVING "FLOW FRONT FACE " ON UNIT  53 AT TIME STEP 53, STRESS PERIOD   3
1
              HEAD IN LAYER   1 AT END OF TIME STEP  53 IN STRESS PERIOD    3
  ---------------------------------------------------------------------------

            1           2           3           4           5           6           7           8           9          10
 ........................................................................................................................
   1    9.996       9.592       9.113       8.501       7.713       6.716       5.455       3.899       2.064      2.0859E-02
   2    9.996       9.568       9.059       8.405       7.588       6.618       5.397       3.870       2.053      2.0750E-02
   3    9.995       9.521       8.938       8.173       7.249       6.380       5.270       3.813       2.032      2.0536E-02
   4    9.995       9.458       8.759       7.747       6.428       5.942       5.079       3.738       2.007      2.0278E-02
   5    9.994       9.418       8.613       7.215       4.239       5.393       4.924       3.690       1.993      2.0137E-02
   6    9.995       9.458       8.760       7.748       6.429       5.943       5.080       3.738       2.007      2.0280E-02
   7    9.995       9.522       8.941       8.176       7.253       6.383       5.272       3.814       2.032      2.0542E-02
   8    9.996       9.572       9.065       8.415       7.599       6.628       5.404       3.874       2.054      2.0766E-02
   9    9.996       9.600       9.132       8.528       7.744       6.744       5.474       3.909       2.068      2.0903E-02
  10    9.996       9.612       9.158       8.572       7.797       6.787       5.502       3.923       2.074      2.0963E-02

 HEAD WILL BE SAVED ON UNIT   51 AT END OF TIME STEP   53, STRESS PERIOD    3

 DRAWDOWN WILL BE SAVED ON UNIT   52 AT END OF TIME STEP   53, STRESS PERIOD    3
1
  VOLUMETRIC BUDGET FOR ENTIRE MODEL AT END OF TIME STEP   53, STRESS PERIOD   3
  ------------------------------------------------------------------------------

     CUMULATIVE VOLUMES      L**3       RATES FOR THIS TIME STEP      L**3/T
     ------------------                 ------------------------

           IN:                                      IN:
           ---                                      ---
             STORAGE =      388418.7500               STORAGE =        1253.8640
       CONSTANT HEAD =           0.0000         CONSTANT HEAD =           0.0000
               WELLS =           0.0000                 WELLS =           0.0000
     HEAD DEP BOUNDS =       11899.4355       HEAD DEP BOUNDS =         276.2103

            TOTAL IN =      400318.1875              TOTAL IN =        1530.0742

          OUT:                                     OUT:
          ----                                     ----
             STORAGE =           0.0000               STORAGE =           0.0000
       CONSTANT HEAD =           0.0000         CONSTANT HEAD =           0.0000
               WELLS =       26500.0000                 WELLS =         500.0000
     HEAD DEP BOUNDS =      373818.2500       HEAD DEP BOUNDS =        1030.0756

           TOTAL OUT =      400318.2500             TOTAL OUT =        1530.0756

            IN - OUT =      -6.2500E-02              IN - OUT =      -1.3428E-03

 PERCENT DISCREPANCY =          -0.00     PERCENT DISCREPANCY =          -0.00






         TIME SUMMARY AT END OF TIME STEP   53 IN STRESS PERIOD    3
                    SECONDS     MINUTES      HOURS       DAYS        YEARS
                    -----------------------------------------------------------
   TIME STEP LENGTH  86400.      1440.0      24.000     1.00000     2.73785E-03
 STRESS PERIOD TIME 4.57920E+06  76320.      1272.0      53.000     0.14511    
         TOTAL TIME 1.33056E+07 2.21760E+05  3696.0      154.00     0.42163    
1
 
 SOLVING FOR HEAD 

 OUTPUT CONTROL FOR STRESS PERIOD    3   TIME STEP   54
    SAVE HEAD FOR ALL LAYERS
    SAVE DRAWDOWN FOR ALL LAYERS
    SAVE BUDGET
    PRINT HEAD FOR ALL LAYERS
    PRINT BUDGET
 UBDSV1 SAVING "         STORAGE" ON UNIT  53 AT TIME STEP 54, STRESS PERIOD   3
 UBDSV2 SAVING "   CONSTANT HEAD" ON UNIT  53 AT TIME STEP 54, STRESS PERIOD   3
 UBDSV1 SAVING "FLOW RIGHT FACE " ON UNIT  53 AT TIME STEP 54, STRESS PERIOD   3
 UBDSV1 SAVING "FLOW FRONT FACE " ON UNIT  53 AT TIME STEP 54, STRESS PERIOD   3
1
              HEAD IN LAYER   1 AT END OF TIME STEP  54 IN STRESS PERIOD    3
  ---------------------------------------------------------------------------

            1           2           3           4           5           6           7           8           9          10
 ........................................................................................................................
   1    9.996       9.586       9.102       8.486       7.694       6.697       5.438       3.885       2.056      2.0782E-02
   2    9.996       9.562       9.047       8.388       7.568       6.597       5.379       3.856       2.045      2.0668E-02
   3    9.995       9.514       8.925       8.153       7.226       6.356       5.249       3.797       2.023      2.0448E-02
   4    9.995       9.450       8.743       7.725       6.402       5.916       5.056       3.721       1.997      2.0184E-02
   5    9.994       9.410       8.597       7.192       4.211       5.365       4.900       3.673       1.983      2.0040E-02
   6    9.995       9.451       8.744       7.726       6.403       5.917       5.057       3.721       1.998      2.0186E-02
   7    9.995       9.515       8.927       8.157       7.230       6.360       5.252       3.799       2.024      2.0454E-02
   8    9.996       9.566       9.054       8.399       7.579       6.608       5.386       3.860       2.047      2.0686E-02
   9    9.996       9.595       9.122       8.514       7.727       6.726       5.457       3.896       2.061      2.0828E-02
  10    9.996       9.608       9.149       8.559       7.781       6.771       5.486       3.911       2.067      2.0891E-02

 HEAD WILL BE SAVED ON UNIT   51 AT END OF TIME STEP   54, STRESS PERIOD    3

 DRAWDOWN WILL BE SAVED ON UNIT   52 AT END OF TIME STEP   54, STRESS PERIOD    3
1
  VOLUMETRIC BUDGET FOR ENTIRE MODEL AT END OF TIME STEP   54, STRESS PERIOD   3
  ------------------------------------------------------------------------------

     CUMULATIVE VOLUMES      L**3       RATES FOR THIS TIME STEP      L**3/T
     ------------------                 ------------------------

           IN:                                      IN:
           ---                                      ---
             STORAGE =      389664.5312               STORAGE =        1245.7747
       CONSTANT HEAD =           0.0000         CONSTANT HEAD =           0.0000
               WELLS =           0.0000                 WELLS =           0.0000
     HEAD DEP BOUNDS =       12179.4980       HEAD DEP BOUNDS =         280.0629

            TOTAL IN =      401844.0312              TOTAL IN =        1525.8375

          OUT:                                     OUT:
          ----                                     ----
             STORAGE =           0.0000               STORAGE =           0.0000
       CONSTANT HEAD =           0.0000         CONSTANT HEAD =           0.0000
               WELLS =       27000.0000                 WELLS =         500.0000
     HEAD DEP BOUNDS =      374844.0938       HEAD DEP BOUNDS =        1025.8387

           TOTAL OUT =      401844.0938             TOTAL OUT =        1525.8387

            IN - OUT =      -6.2500E-02              IN - OUT =      -1.2207E-03

 PERCENT DISCREPANCY =          -0.00     PERCENT DISCREPANCY =          -0.00






         TIME SUMMARY AT END OF TIME STEP   54 IN STRESS PERIOD    3
                    SECONDS     MINUTES      HOURS       DAYS        YEARS
                    -----------------------------------------------------------
   TIME STEP LENGTH  86400.      1440.0      24.000     1.00000     2.73785E-03
 STRESS PERIOD TIME 4.66560E+06  77760.      1296.0      54.000     0.14784    
         TOTAL TIME 1.33920E+07 2.23200E+05  3720.0      155.00     0.42437    
1
 
 SOLVING FOR HEAD 

 OUTPUT CONTROL FOR STRESS PERIOD    3   TIME STEP   55
    SAVE HEAD FOR ALL LAYERS
    SAVE DRAWDOWN FOR ALL LAYERS
    SAVE BUDGET
    PRINT HEAD FOR ALL LAYERS
    PRINT BUDGET
 UBDSV1 SAVING "         STORAGE" ON UNIT  53 AT TIME STEP 55, STRESS PERIOD   3
 UBDSV2 SAVING "   CONSTANT HEAD" ON UNIT  53 AT TIME STEP 55, STRESS PERIOD   3
 UBDSV1 SAVING "FLOW RIGHT FACE " ON UNIT  53 AT TIME STEP 55, STRESS PERIOD   3
 UBDSV1 SAVING "FLOW FRONT FACE " ON UNIT  53 AT TIME STEP 55, STRESS PERIOD   3
1
              HEAD IN LAYER   1 AT END OF TIME STEP  55 IN STRESS PERIOD    3
  ---------------------------------------------------------------------------

            1           2           3           4           5           6           7           8           9          10
 ........................................................................................................................
   1    9.996       9.580       9.092       8.470       7.676       6.678       5.420       3.871       2.049      2.0704E-02
   2    9.996       9.556       9.035       8.371       7.548       6.577       5.360       3.842       2.037      2.0587E-02
   3    9.995       9.507       8.911       8.134       7.203       6.333       5.228       3.782       2.015      2.0360E-02
   4    9.995       9.442       8.728       7.703       6.376       5.890       5.034       3.704       1.988      2.0090E-02
   5    9.994       9.402       8.581       7.169       4.183       5.338       4.877       3.655       1.974      1.9945E-02
   6    9.995       9.443       8.729       7.704       6.377       5.891       5.034       3.704       1.989      2.0092E-02
   7    9.995       9.508       8.914       8.138       7.207       6.337       5.231       3.783       2.016      2.0367E-02
   8    9.996       9.560       9.042       8.382       7.560       6.587       5.367       3.846       2.039      2.0606E-02
   9    9.996       9.590       9.112       8.500       7.710       6.708       5.441       3.883       2.053      2.0754E-02
  10    9.996       9.603       9.140       8.546       7.765       6.754       5.471       3.899       2.060      2.0819E-02

 HEAD WILL BE SAVED ON UNIT   51 AT END OF TIME STEP   55, STRESS PERIOD    3

 DRAWDOWN WILL BE SAVED ON UNIT   52 AT END OF TIME STEP   55, STRESS PERIOD    3
1
  VOLUMETRIC BUDGET FOR ENTIRE MODEL AT END OF TIME STEP   55, STRESS PERIOD   3
  ------------------------------------------------------------------------------

     CUMULATIVE VOLUMES      L**3       RATES FOR THIS TIME STEP      L**3/T
     ------------------                 ------------------------

           IN:                                      IN:
           ---                                      ---
             STORAGE =      390902.2500               STORAGE =        1237.7174
       CONSTANT HEAD =           0.0000         CONSTANT HEAD =           0.0000
               WELLS =           0.0000                 WELLS =           0.0000
     HEAD DEP BOUNDS =       12463.4150       HEAD DEP BOUNDS =         283.9173

            TOTAL IN =      403365.6562              TOTAL IN =        1521.6346

          OUT:                                     OUT:
          ----                                     ----
             STORAGE =           0.0000               STORAGE =           0.0000
       CONSTANT HEAD =           0.0000         CONSTANT HEAD =           0.0000
               WELLS =       27500.0000                 WELLS =         500.0000
     HEAD DEP BOUNDS =      375865.7188       HEAD DEP BOUNDS =        1021.6223

           TOTAL OUT =      403365.7188             TOTAL OUT =        1521.6223

            IN - OUT =      -6.2500E-02              IN - OUT =       1.2329E-02

 PERCENT DISCREPANCY =          -0.00     PERCENT DISCREPANCY =           0.00






         TIME SUMMARY AT END OF TIME STEP   55 IN STRESS PERIOD    3
                    SECONDS     MINUTES      HOURS       DAYS        YEARS
                    -----------------------------------------------------------
   TIME STEP LENGTH  86400.      1440.0      24.000     1.00000     2.73785E-03
 STRESS PERIOD TIME 4.75200E+06  79200.      1320.0      55.000     0.15058    
         TOTAL TIME 1.34784E+07 2.24640E+05  3744.0      156.00     0.42710    
1
 
 SOLVING FOR HEAD 

 OUTPUT CONTROL FOR STRESS PERIOD    3   TIME STEP   56
    SAVE HEAD FOR ALL LAYERS
    SAVE DRAWDOWN FOR ALL LAYERS
    SAVE BUDGET
    PRINT HEAD FOR ALL LAYERS
    PRINT BUDGET
 UBDSV1 SAVING "         STORAGE" ON UNIT  53 AT TIME STEP 56, STRESS PERIOD   3
 UBDSV2 SAVING "   CONSTANT HEAD" ON UNIT  53 AT TIME STEP 56, STRESS PERIOD   3
 UBDSV1 SAVING "FLOW RIGHT FACE " ON UNIT  53 AT TIME STEP 56, STRESS PERIOD   3
 UBDSV1 SAVING "FLOW FRONT FACE " ON UNIT  53 AT TIME STEP 56, STRESS PERIOD   3
1
              HEAD IN LAYER   1 AT END OF TIME STEP  56 IN STRESS PERIOD    3
  ---------------------------------------------------------------------------

            1           2           3           4           5           6           7           8           9          10
 ........................................................................................................................
   1    9.996       9.575       9.081       8.455       7.658       6.659       5.403       3.858       2.041      2.0627E-02
   2    9.996       9.550       9.023       8.355       7.528       6.556       5.341       3.828       2.029      2.0506E-02
   3    9.995       9.500       8.897       8.115       7.180       6.310       5.208       3.766       2.006      2.0273E-02
   4    9.994       9.435       8.713       7.682       6.351       5.864       5.011       3.687       1.979      1.9997E-02
   5    9.994       9.393       8.565       7.146       4.155       5.311       4.853       3.638       1.965      1.9849E-02
   6    9.994       9.435       8.714       7.683       6.352       5.865       5.012       3.688       1.980      2.0000E-02
   7    9.995       9.501       8.900       8.119       7.185       6.314       5.211       3.768       2.007      2.0281E-02
   8    9.996       9.554       9.031       8.366       7.541       6.567       5.349       3.832       2.031      2.0526E-02
   9    9.996       9.585       9.102       8.486       7.694       6.690       5.424       3.870       2.046      2.0680E-02
  10    9.996       9.598       9.131       8.533       7.750       6.737       5.455       3.887       2.053      2.0748E-02

 HEAD WILL BE SAVED ON UNIT   51 AT END OF TIME STEP   56, STRESS PERIOD    3

 DRAWDOWN WILL BE SAVED ON UNIT   52 AT END OF TIME STEP   56, STRESS PERIOD    3
1
  VOLUMETRIC BUDGET FOR ENTIRE MODEL AT END OF TIME STEP   56, STRESS PERIOD   3
  ------------------------------------------------------------------------------

     CUMULATIVE VOLUMES      L**3       RATES FOR THIS TIME STEP      L**3/T
     ------------------                 ------------------------

           IN:                                      IN:
           ---                                      ---
             STORAGE =      392131.9375               STORAGE =        1229.6952
       CONSTANT HEAD =           0.0000         CONSTANT HEAD =           0.0000
               WELLS =           0.0000                 WELLS =           0.0000
     HEAD DEP BOUNDS =       12751.1611       HEAD DEP BOUNDS =         287.7462

            TOTAL IN =      404883.0938              TOTAL IN =        1517.4414

          OUT:                                     OUT:
          ----                                     ----
             STORAGE =           0.0000               STORAGE =           0.0000
       CONSTANT HEAD =           0.0000         CONSTANT HEAD =           0.0000
               WELLS =       28000.0000                 WELLS =         500.0000
     HEAD DEP BOUNDS =      376883.1562       HEAD DEP BOUNDS =        1017.4335

           TOTAL OUT =      404883.1562             TOTAL OUT =        1517.4336

            IN - OUT =      -6.2500E-02              IN - OUT =       7.8125E-03

 PERCENT DISCREPANCY =          -0.00     PERCENT DISCREPANCY =           0.00






         TIME SUMMARY AT END OF TIME STEP   56 IN STRESS PERIOD    3
                    SECONDS     MINUTES      HOURS       DAYS        YEARS
                    -----------------------------------------------------------
   TIME STEP LENGTH  86400.      1440.0      24.000     1.00000     2.73785E-03
 STRESS PERIOD TIME 4.83840E+06  80640.      1344.0      56.000     0.15332    
         TOTAL TIME 1.35648E+07 2.26080E+05  3768.0      157.00     0.42984    
1
 
 SOLVING FOR HEAD 

 OUTPUT CONTROL FOR STRESS PERIOD    3   TIME STEP   57
    SAVE HEAD FOR ALL LAYERS
    SAVE DRAWDOWN FOR ALL LAYERS
    SAVE BUDGET
    PRINT HEAD FOR ALL LAYERS
    PRINT BUDGET
 UBDSV1 SAVING "         STORAGE" ON UNIT  53 AT TIME STEP 57, STRESS PERIOD   3
 UBDSV2 SAVING "   CONSTANT HEAD" ON UNIT  53 AT TIME STEP 57, STRESS PERIOD   3
 UBDSV1 SAVING "FLOW RIGHT FACE " ON UNIT  53 AT TIME STEP 57, STRESS PERIOD   3
 UBDSV1 SAVING "FLOW FRONT FACE " ON UNIT  53 AT TIME STEP 57, STRESS PERIOD   3
1
              HEAD IN LAYER   1 AT END OF TIME STEP  57 IN STRESS PERIOD    3
  ---------------------------------------------------------------------------

            1           2           3           4           5           6           7           8           9          10
 ........................................................................................................................
   1    9.996       9.569       9.070       8.440       7.639       6.640       5.385       3.845       2.034      2.0550E-02
   2    9.996       9.544       9.011       8.338       7.508       6.535       5.323       3.813       2.021      2.0425E-02
   3    9.995       9.493       8.884       8.096       7.158       6.287       5.187       3.751       1.998      2.0187E-02
   4    9.994       9.427       8.698       7.660       6.325       5.839       4.989       3.671       1.970      1.9905E-02
   5    9.994       9.385       8.549       7.124       4.128       5.284       4.830       3.621       1.956      1.9755E-02
   6    9.994       9.427       8.699       7.662       6.327       5.840       4.990       3.671       1.971      1.9908E-02
   7    9.995       9.494       8.887       8.100       7.162       6.291       5.190       3.753       1.999      2.0195E-02
   8    9.996       9.548       9.019       8.350       7.521       6.548       5.331       3.818       2.024      2.0447E-02
   9    9.996       9.580       9.092       8.472       7.677       6.672       5.408       3.857       2.039      2.0606E-02
  10    9.996       9.593       9.122       8.519       7.734       6.721       5.440       3.874       2.046      2.0677E-02

 HEAD WILL BE SAVED ON UNIT   51 AT END OF TIME STEP   57, STRESS PERIOD    3

 DRAWDOWN WILL BE SAVED ON UNIT   52 AT END OF TIME STEP   57, STRESS PERIOD    3
1
  VOLUMETRIC BUDGET FOR ENTIRE MODEL AT END OF TIME STEP   57, STRESS PERIOD   3
  ------------------------------------------------------------------------------

     CUMULATIVE VOLUMES      L**3       RATES FOR THIS TIME STEP      L**3/T
     ------------------                 ------------------------

           IN:                                      IN:
           ---                                      ---
             STORAGE =      393353.6562               STORAGE =        1221.7129
       CONSTANT HEAD =           0.0000         CONSTANT HEAD =           0.0000
               WELLS =           0.0000                 WELLS =           0.0000
     HEAD DEP BOUNDS =       13042.7100       HEAD DEP BOUNDS =         291.5491

            TOTAL IN =      406396.3750              TOTAL IN =        1513.2620

          OUT:                                     OUT:
          ----                                     ----
             STORAGE =           0.0000               STORAGE =           0.0000
       CONSTANT HEAD =           0.0000         CONSTANT HEAD =           0.0000
               WELLS =       28500.0000                 WELLS =         500.0000
     HEAD DEP BOUNDS =      377896.4375       HEAD DEP BOUNDS =        1013.2694

           TOTAL OUT =      406396.4375             TOTAL OUT =        1513.2694

            IN - OUT =      -6.2500E-02              IN - OUT =      -7.4463E-03

 PERCENT DISCREPANCY =          -0.00     PERCENT DISCREPANCY =          -0.00






         TIME SUMMARY AT END OF TIME STEP   57 IN STRESS PERIOD    3
                    SECONDS     MINUTES      HOURS       DAYS        YEARS
                    -----------------------------------------------------------
   TIME STEP LENGTH  86400.      1440.0      24.000     1.00000     2.73785E-03
 STRESS PERIOD TIME 4.92480E+06  82080.      1368.0      57.000     0.15606    
         TOTAL TIME 1.36512E+07 2.27520E+05  3792.0      158.00     0.43258    
1
 
 SOLVING FOR HEAD 

 OUTPUT CONTROL FOR STRESS PERIOD    3   TIME STEP   58
    SAVE HEAD FOR ALL LAYERS
    SAVE DRAWDOWN FOR ALL LAYERS
    SAVE BUDGET
    PRINT HEAD FOR ALL LAYERS
    PRINT BUDGET
 UBDSV1 SAVING "         STORAGE" ON UNIT  53 AT TIME STEP 58, STRESS PERIOD   3
 UBDSV2 SAVING "   CONSTANT HEAD" ON UNIT  53 AT TIME STEP 58, STRESS PERIOD   3
 UBDSV1 SAVING "FLOW RIGHT FACE " ON UNIT  53 AT TIME STEP 58, STRESS PERIOD   3
 UBDSV1 SAVING "FLOW FRONT FACE " ON UNIT  53 AT TIME STEP 58, STRESS PERIOD   3
1
              HEAD IN LAYER   1 AT END OF TIME STEP  58 IN STRESS PERIOD    3
  ---------------------------------------------------------------------------

            1           2           3           4           5           6           7           8           9          10
 ........................................................................................................................
   1    9.996       9.563       9.059       8.424       7.621       6.621       5.368       3.831       2.026      2.0473E-02
   2    9.995       9.538       8.999       8.321       7.488       6.515       5.304       3.799       2.014      2.0345E-02
   3    9.995       9.486       8.870       8.077       7.135       6.264       5.167       3.736       1.990      2.0101E-02
   4    9.994       9.419       8.683       7.639       6.300       5.813       4.967       3.654       1.961      1.9814E-02
   5    9.994       9.378       8.534       7.102       4.100       5.258       4.807       3.604       1.946      1.9661E-02
   6    9.994       9.420       8.684       7.641       6.302       5.815       4.968       3.655       1.962      1.9816E-02
   7    9.995       9.488       8.874       8.081       7.140       6.268       5.170       3.738       1.990      2.0109E-02
   8    9.995       9.542       9.008       8.334       7.502       6.528       5.313       3.805       2.016      2.0368E-02
   9    9.996       9.574       9.082       8.458       7.660       6.655       5.392       3.845       2.032      2.0533E-02
  10    9.996       9.589       9.112       8.506       7.718       6.704       5.424       3.862       2.039      2.0606E-02

 HEAD WILL BE SAVED ON UNIT   51 AT END OF TIME STEP   58, STRESS PERIOD    3

 DRAWDOWN WILL BE SAVED ON UNIT   52 AT END OF TIME STEP   58, STRESS PERIOD    3
1
  VOLUMETRIC BUDGET FOR ENTIRE MODEL AT END OF TIME STEP   58, STRESS PERIOD   3
  ------------------------------------------------------------------------------

     CUMULATIVE VOLUMES      L**3       RATES FOR THIS TIME STEP      L**3/T
     ------------------                 ------------------------

           IN:                                      IN:
           ---                                      ---
             STORAGE =      394567.4375               STORAGE =        1213.7775
       CONSTANT HEAD =           0.0000         CONSTANT HEAD =           0.0000
               WELLS =           0.0000                 WELLS =           0.0000
     HEAD DEP BOUNDS =       13338.0625       HEAD DEP BOUNDS =         295.3522

            TOTAL IN =      407905.5000              TOTAL IN =        1509.1296

          OUT:                                     OUT:
          ----                                     ----
             STORAGE =           0.0000               STORAGE =           0.0000
       CONSTANT HEAD =           0.0000         CONSTANT HEAD =           0.0000
               WELLS =       29000.0000                 WELLS =         500.0000
     HEAD DEP BOUNDS =      378905.5625       HEAD DEP BOUNDS =        1009.1298

           TOTAL OUT =      407905.5625             TOTAL OUT =        1509.1298

            IN - OUT =      -6.2500E-02              IN - OUT =      -1.2207E-04

 PERCENT DISCREPANCY =          -0.00     PERCENT DISCREPANCY =          -0.00






         TIME SUMMARY AT END OF TIME STEP   58 IN STRESS PERIOD    3
                    SECONDS     MINUTES      HOURS       DAYS        YEARS
                    -----------------------------------------------------------
   TIME STEP LENGTH  86400.      1440.0      24.000     1.00000     2.73785E-03
 STRESS PERIOD TIME 5.01120E+06  83520.      1392.0      58.000     0.15880    
         TOTAL TIME 1.37376E+07 2.28960E+05  3816.0      159.00     0.43532    
1
 
 SOLVING FOR HEAD 

 OUTPUT CONTROL FOR STRESS PERIOD    3   TIME STEP   59
    SAVE HEAD FOR ALL LAYERS
    SAVE DRAWDOWN FOR ALL LAYERS
    SAVE BUDGET
    PRINT HEAD FOR ALL LAYERS
    PRINT BUDGET
 UBDSV1 SAVING "         STORAGE" ON UNIT  53 AT TIME STEP 59, STRESS PERIOD   3
 UBDSV2 SAVING "   CONSTANT HEAD" ON UNIT  53 AT TIME STEP 59, STRESS PERIOD   3
 UBDSV1 SAVING "FLOW RIGHT FACE " ON UNIT  53 AT TIME STEP 59, STRESS PERIOD   3
 UBDSV1 SAVING "FLOW FRONT FACE " ON UNIT  53 AT TIME STEP 59, STRESS PERIOD   3
1
              HEAD IN LAYER   1 AT END OF TIME STEP  59 IN STRESS PERIOD    3
  ---------------------------------------------------------------------------

            1           2           3           4           5           6           7           8           9          10
 ........................................................................................................................
   1    9.996       9.558       9.048       8.409       7.603       6.602       5.351       3.818       2.019      2.0397E-02
   2    9.995       9.532       8.987       8.305       7.468       6.495       5.286       3.785       2.006      2.0265E-02
   3    9.995       9.479       8.857       8.058       7.113       6.241       5.147       3.720       1.981      2.0015E-02
   4    9.994       9.412       8.668       7.618       6.276       5.788       4.945       3.638       1.953      1.9722E-02
   5    9.994       9.370       8.519       7.080       4.074       5.232       4.785       3.588       1.937      1.9568E-02
   6    9.994       9.412       8.669       7.620       6.277       5.790       4.946       3.639       1.953      1.9725E-02
   7    9.995       9.481       8.860       8.063       7.119       6.246       5.150       3.722       1.982      2.0024E-02
   8    9.995       9.536       8.996       8.318       7.483       6.508       5.295       3.791       2.008      2.0290E-02
   9    9.996       9.569       9.072       8.444       7.643       6.637       5.376       3.832       2.025      2.0460E-02
  10    9.996       9.584       9.103       8.494       7.703       6.688       5.409       3.850       2.032      2.0536E-02

 HEAD WILL BE SAVED ON UNIT   51 AT END OF TIME STEP   59, STRESS PERIOD    3

 DRAWDOWN WILL BE SAVED ON UNIT   52 AT END OF TIME STEP   59, STRESS PERIOD    3
1
  VOLUMETRIC BUDGET FOR ENTIRE MODEL AT END OF TIME STEP   59, STRESS PERIOD   3
  ------------------------------------------------------------------------------

     CUMULATIVE VOLUMES      L**3       RATES FOR THIS TIME STEP      L**3/T
     ------------------                 ------------------------

           IN:                                      IN:
           ---                                      ---
             STORAGE =      395773.3125               STORAGE =        1205.8800
       CONSTANT HEAD =           0.0000         CONSTANT HEAD =           0.0000
               WELLS =           0.0000                 WELLS =           0.0000
     HEAD DEP BOUNDS =       13637.1973       HEAD DEP BOUNDS =         299.1351

            TOTAL IN =      409410.5000              TOTAL IN =        1505.0151

          OUT:                                     OUT:
          ----                                     ----
             STORAGE =           0.0000               STORAGE =           0.0000
       CONSTANT HEAD =           0.0000         CONSTANT HEAD =           0.0000
               WELLS =       29500.0000                 WELLS =         500.0000
     HEAD DEP BOUNDS =      379910.5625       HEAD DEP BOUNDS =        1005.0131

           TOTAL OUT =      409410.5625             TOTAL OUT =        1505.0131

            IN - OUT =      -6.2500E-02              IN - OUT =       2.0752E-03

 PERCENT DISCREPANCY =          -0.00     PERCENT DISCREPANCY =           0.00






         TIME SUMMARY AT END OF TIME STEP   59 IN STRESS PERIOD    3
                    SECONDS     MINUTES      HOURS       DAYS        YEARS
                    -----------------------------------------------------------
   TIME STEP LENGTH  86400.      1440.0      24.000     1.00000     2.73785E-03
 STRESS PERIOD TIME 5.09760E+06  84960.      1416.0      59.000     0.16153    
         TOTAL TIME 1.38240E+07 2.30400E+05  3840.0      160.00     0.43806    
1
 
 SOLVING FOR HEAD 

 OUTPUT CONTROL FOR STRESS PERIOD    3   TIME STEP   60
    SAVE HEAD FOR ALL LAYERS
    SAVE DRAWDOWN FOR ALL LAYERS
    SAVE BUDGET
    PRINT HEAD FOR ALL LAYERS
    PRINT BUDGET
 UBDSV1 SAVING "         STORAGE" ON UNIT  53 AT TIME STEP 60, STRESS PERIOD   3
 UBDSV2 SAVING "   CONSTANT HEAD" ON UNIT  53 AT TIME STEP 60, STRESS PERIOD   3
 UBDSV1 SAVING "FLOW RIGHT FACE " ON UNIT  53 AT TIME STEP 60, STRESS PERIOD   3
 UBDSV1 SAVING "FLOW FRONT FACE " ON UNIT  53 AT TIME STEP 60, STRESS PERIOD   3
1
              HEAD IN LAYER   1 AT END OF TIME STEP  60 IN STRESS PERIOD    3
  ---------------------------------------------------------------------------

            1           2           3           4           5           6           7           8           9          10
 ........................................................................................................................
   1    9.996       9.552       9.037       8.394       7.585       6.583       5.334       3.805       2.011      2.0321E-02
   2    9.995       9.525       8.975       8.288       7.449       6.475       5.268       3.771       1.998      2.0185E-02
   3    9.995       9.472       8.844       8.039       7.091       6.219       5.127       3.705       1.973      1.9930E-02
   4    9.994       9.404       8.653       7.598       6.251       5.764       4.923       3.622       1.944      1.9632E-02
   5    9.994       9.362       8.503       7.058       4.047       5.206       4.762       3.571       1.928      1.9475E-02
   6    9.994       9.405       8.655       7.599       6.253       5.765       4.924       3.623       1.944      1.9635E-02
   7    9.995       9.474       8.847       8.044       7.097       6.224       5.131       3.708       1.974      1.9940E-02
   8    9.995       9.530       8.985       8.302       7.465       6.489       5.278       3.777       2.001      2.0212E-02
   9    9.996       9.564       9.062       8.430       7.626       6.619       5.359       3.820       2.018      2.0387E-02
  10    9.996       9.579       9.094       8.481       7.687       6.671       5.394       3.838       2.026      2.0467E-02

 HEAD WILL BE SAVED ON UNIT   51 AT END OF TIME STEP   60, STRESS PERIOD    3

 DRAWDOWN WILL BE SAVED ON UNIT   52 AT END OF TIME STEP   60, STRESS PERIOD    3
1
  VOLUMETRIC BUDGET FOR ENTIRE MODEL AT END OF TIME STEP   60, STRESS PERIOD   3
  ------------------------------------------------------------------------------

     CUMULATIVE VOLUMES      L**3       RATES FOR THIS TIME STEP      L**3/T
     ------------------                 ------------------------

           IN:                                      IN:
           ---                                      ---
             STORAGE =      396971.3438               STORAGE =        1198.0220
       CONSTANT HEAD =           0.0000         CONSTANT HEAD =           0.0000
               WELLS =           0.0000                 WELLS =           0.0000
     HEAD DEP BOUNDS =       13940.0947       HEAD DEP BOUNDS =         302.8974

            TOTAL IN =      410911.4375              TOTAL IN =        1500.9194

          OUT:                                     OUT:
          ----                                     ----
             STORAGE =           0.0000               STORAGE =           0.0000
       CONSTANT HEAD =           0.0000         CONSTANT HEAD =           0.0000
               WELLS =       30000.0000                 WELLS =         500.0000
     HEAD DEP BOUNDS =      380911.4688       HEAD DEP BOUNDS =        1000.9210

           TOTAL OUT =      410911.4688             TOTAL OUT =        1500.9210

            IN - OUT =      -3.1250E-02              IN - OUT =      -1.5869E-03

 PERCENT DISCREPANCY =          -0.00     PERCENT DISCREPANCY =          -0.00






         TIME SUMMARY AT END OF TIME STEP   60 IN STRESS PERIOD    3
                    SECONDS     MINUTES      HOURS       DAYS        YEARS
                    -----------------------------------------------------------
   TIME STEP LENGTH  86400.      1440.0      24.000     1.00000     2.73785E-03
 STRESS PERIOD TIME 5.18400E+06  86400.      1440.0      60.000     0.16427    
         TOTAL TIME 1.39104E+07 2.31840E+05  3864.0      161.00     0.44079    
1
 
 SOLVING FOR HEAD 

 OUTPUT CONTROL FOR STRESS PERIOD    3   TIME STEP   61
    SAVE HEAD FOR ALL LAYERS
    SAVE DRAWDOWN FOR ALL LAYERS
    SAVE BUDGET
    PRINT HEAD FOR ALL LAYERS
    PRINT BUDGET
 UBDSV1 SAVING "         STORAGE" ON UNIT  53 AT TIME STEP 61, STRESS PERIOD   3
 UBDSV2 SAVING "   CONSTANT HEAD" ON UNIT  53 AT TIME STEP 61, STRESS PERIOD   3
 UBDSV1 SAVING "FLOW RIGHT FACE " ON UNIT  53 AT TIME STEP 61, STRESS PERIOD   3
 UBDSV1 SAVING "FLOW FRONT FACE " ON UNIT  53 AT TIME STEP 61, STRESS PERIOD   3
1
              HEAD IN LAYER   1 AT END OF TIME STEP  61 IN STRESS PERIOD    3
  ---------------------------------------------------------------------------

            1           2           3           4           5           6           7           8           9          10
 ........................................................................................................................
   1    9.996       9.547       9.026       8.378       7.567       6.564       5.317       3.792       2.004      2.0246E-02
   2    9.995       9.519       8.964       8.272       7.429       6.454       5.250       3.758       1.990      2.0107E-02
   3    9.995       9.465       8.831       8.021       7.070       6.197       5.107       3.690       1.965      1.9845E-02
   4    9.994       9.397       8.639       7.577       6.227       5.739       4.902       3.606       1.935      1.9542E-02
   5    9.994       9.354       8.488       7.037       4.021       5.181       4.740       3.555       1.919      1.9383E-02
   6    9.994       9.397       8.640       7.579       6.229       5.741       4.903       3.607       1.935      1.9545E-02
   7    9.995       9.467       8.834       8.026       7.075       6.202       5.111       3.693       1.966      1.9856E-02
   8    9.995       9.525       8.974       8.286       7.446       6.469       5.260       3.764       1.993      2.0135E-02
   9    9.996       9.559       9.052       8.416       7.610       6.602       5.343       3.807       2.011      2.0315E-02
  10    9.996       9.574       9.085       8.468       7.672       6.655       5.378       3.826       2.019      2.0398E-02

 HEAD WILL BE SAVED ON UNIT   51 AT END OF TIME STEP   61, STRESS PERIOD    3

 DRAWDOWN WILL BE SAVED ON UNIT   52 AT END OF TIME STEP   61, STRESS PERIOD    3
1
  VOLUMETRIC BUDGET FOR ENTIRE MODEL AT END OF TIME STEP   61, STRESS PERIOD   3
  ------------------------------------------------------------------------------

     CUMULATIVE VOLUMES      L**3       RATES FOR THIS TIME STEP      L**3/T
     ------------------                 ------------------------

           IN:                                      IN:
           ---                                      ---
             STORAGE =      398161.5312               STORAGE =        1190.2026
       CONSTANT HEAD =           0.0000         CONSTANT HEAD =           0.0000
               WELLS =           0.0000                 WELLS =           0.0000
     HEAD DEP BOUNDS =       14246.7529       HEAD DEP BOUNDS =         306.6587

            TOTAL IN =      412408.2812              TOTAL IN =        1496.8613

          OUT:                                     OUT:
          ----                                     ----
             STORAGE =           0.0000               STORAGE =           0.0000
       CONSTANT HEAD =           0.0000         CONSTANT HEAD =           0.0000
               WELLS =       30500.0000                 WELLS =         500.0000
     HEAD DEP BOUNDS =      381908.3125       HEAD DEP BOUNDS =         996.8542

           TOTAL OUT =      412408.3125             TOTAL OUT =        1496.8542

            IN - OUT =      -3.1250E-02              IN - OUT =       7.0801E-03

 PERCENT DISCREPANCY =          -0.00     PERCENT DISCREPANCY =           0.00






         TIME SUMMARY AT END OF TIME STEP   61 IN STRESS PERIOD    3
                    SECONDS     MINUTES      HOURS       DAYS        YEARS
                    -----------------------------------------------------------
   TIME STEP LENGTH  86400.      1440.0      24.000     1.00000     2.73785E-03
 STRESS PERIOD TIME 5.27040E+06  87840.      1464.0      61.000     0.16701    
         TOTAL TIME 1.39968E+07 2.33280E+05  3888.0      162.00     0.44353    
1
 
 SOLVING FOR HEAD 

 OUTPUT CONTROL FOR STRESS PERIOD    3   TIME STEP   62
    SAVE HEAD FOR ALL LAYERS
    SAVE DRAWDOWN FOR ALL LAYERS
    SAVE BUDGET
    PRINT HEAD FOR ALL LAYERS
    PRINT BUDGET
 UBDSV1 SAVING "         STORAGE" ON UNIT  53 AT TIME STEP 62, STRESS PERIOD   3
 UBDSV2 SAVING "   CONSTANT HEAD" ON UNIT  53 AT TIME STEP 62, STRESS PERIOD   3
 UBDSV1 SAVING "FLOW RIGHT FACE " ON UNIT  53 AT TIME STEP 62, STRESS PERIOD   3
 UBDSV1 SAVING "FLOW FRONT FACE " ON UNIT  53 AT TIME STEP 62, STRESS PERIOD   3
1
              HEAD IN LAYER   1 AT END OF TIME STEP  62 IN STRESS PERIOD    3
  ---------------------------------------------------------------------------

            1           2           3           4           5           6           7           8           9          10
 ........................................................................................................................
   1    9.995       9.541       9.015       8.363       7.549       6.545       5.300       3.778       1.997      2.0170E-02
   2    9.995       9.513       8.952       8.255       7.410       6.434       5.231       3.744       1.983      2.0028E-02
   3    9.995       9.459       8.818       8.003       7.048       6.175       5.087       3.675       1.957      1.9761E-02
   4    9.994       9.389       8.625       7.557       6.203       5.715       4.880       3.590       1.926      1.9453E-02
   5    9.994       9.346       8.473       7.015       3.995       5.156       4.718       3.538       1.910      1.9292E-02
   6    9.994       9.390       8.626       7.559       6.205       5.717       4.882       3.591       1.927      1.9457E-02
   7    9.995       9.461       8.821       8.008       7.054       6.180       5.091       3.678       1.958      1.9772E-02
   8    9.995       9.519       8.963       8.270       7.427       6.450       5.243       3.750       1.986      2.0058E-02
   9    9.996       9.554       9.042       8.402       7.593       6.585       5.327       3.795       2.004      2.0243E-02
  10    9.996       9.570       9.076       8.455       7.656       6.639       5.363       3.814       2.012      2.0329E-02

 HEAD WILL BE SAVED ON UNIT   51 AT END OF TIME STEP   62, STRESS PERIOD    3

 DRAWDOWN WILL BE SAVED ON UNIT   52 AT END OF TIME STEP   62, STRESS PERIOD    3
1
  VOLUMETRIC BUDGET FOR ENTIRE MODEL AT END OF TIME STEP   62, STRESS PERIOD   3
  ------------------------------------------------------------------------------

     CUMULATIVE VOLUMES      L**3       RATES FOR THIS TIME STEP      L**3/T
     ------------------                 ------------------------

           IN:                                      IN:
           ---                                      ---
             STORAGE =      399343.9688               STORAGE =        1182.4261
       CONSTANT HEAD =           0.0000         CONSTANT HEAD =           0.0000
               WELLS =           0.0000                 WELLS =           0.0000
     HEAD DEP BOUNDS =       14557.1445       HEAD DEP BOUNDS =         310.3919

            TOTAL IN =      413901.1250              TOTAL IN =        1492.8181

          OUT:                                     OUT:
          ----                                     ----
             STORAGE =           0.0000               STORAGE =           0.0000
       CONSTANT HEAD =           0.0000         CONSTANT HEAD =           0.0000
               WELLS =       31000.0000                 WELLS =         500.0000
     HEAD DEP BOUNDS =      382901.1250       HEAD DEP BOUNDS =         992.8130

           TOTAL OUT =      413901.1250             TOTAL OUT =        1492.8130

            IN - OUT =           0.0000              IN - OUT =       5.1270E-03

 PERCENT DISCREPANCY =           0.00     PERCENT DISCREPANCY =           0.00






         TIME SUMMARY AT END OF TIME STEP   62 IN STRESS PERIOD    3
                    SECONDS     MINUTES      HOURS       DAYS        YEARS
                    -----------------------------------------------------------
   TIME STEP LENGTH  86400.      1440.0      24.000     1.00000     2.73785E-03
 STRESS PERIOD TIME 5.35680E+06  89280.      1488.0      62.000     0.16975    
         TOTAL TIME 1.40832E+07 2.34720E+05  3912.0      163.00     0.44627    
1
 
 SOLVING FOR HEAD 

 OUTPUT CONTROL FOR STRESS PERIOD    3   TIME STEP   63
    SAVE HEAD FOR ALL LAYERS
    SAVE DRAWDOWN FOR ALL LAYERS
    SAVE BUDGET
    PRINT HEAD FOR ALL LAYERS
    PRINT BUDGET
 UBDSV1 SAVING "         STORAGE" ON UNIT  53 AT TIME STEP 63, STRESS PERIOD   3
 UBDSV2 SAVING "   CONSTANT HEAD" ON UNIT  53 AT TIME STEP 63, STRESS PERIOD   3
 UBDSV1 SAVING "FLOW RIGHT FACE " ON UNIT  53 AT TIME STEP 63, STRESS PERIOD   3
 UBDSV1 SAVING "FLOW FRONT FACE " ON UNIT  53 AT TIME STEP 63, STRESS PERIOD   3
1
              HEAD IN LAYER   1 AT END OF TIME STEP  63 IN STRESS PERIOD    3
  ---------------------------------------------------------------------------

            1           2           3           4           5           6           7           8           9          10
 ........................................................................................................................
   1    9.995       9.535       9.005       8.348       7.531       6.527       5.283       3.765       1.989      2.0095E-02
   2    9.995       9.507       8.940       8.239       7.391       6.415       5.213       3.730       1.975      1.9950E-02
   3    9.995       9.452       8.805       7.984       7.026       6.153       5.068       3.661       1.949      1.9677E-02
   4    9.994       9.382       8.610       7.537       6.179       5.691       4.859       3.574       1.918      1.9364E-02
   5    9.994       9.339       8.458       6.994       3.970       5.131       4.696       3.522       1.902      1.9201E-02
   6    9.994       9.382       8.612       7.539       6.181       5.693       4.861       3.575       1.918      1.9368E-02
   7    9.995       9.454       8.809       7.990       7.033       6.158       5.072       3.663       1.950      1.9689E-02
   8    9.995       9.513       8.951       8.255       7.409       6.431       5.225       3.737       1.978      1.9982E-02
   9    9.996       9.549       9.032       8.388       7.577       6.567       5.312       3.782       1.997      2.0172E-02
  10    9.996       9.565       9.067       8.442       7.641       6.622       5.348       3.803       2.006      2.0260E-02

 HEAD WILL BE SAVED ON UNIT   51 AT END OF TIME STEP   63, STRESS PERIOD    3

 DRAWDOWN WILL BE SAVED ON UNIT   52 AT END OF TIME STEP   63, STRESS PERIOD    3
1
  VOLUMETRIC BUDGET FOR ENTIRE MODEL AT END OF TIME STEP   63, STRESS PERIOD   3
  ------------------------------------------------------------------------------

     CUMULATIVE VOLUMES      L**3       RATES FOR THIS TIME STEP      L**3/T
     ------------------                 ------------------------

           IN:                                      IN:
           ---                                      ---
             STORAGE =      400518.6562               STORAGE =        1174.6943
       CONSTANT HEAD =           0.0000         CONSTANT HEAD =           0.0000
               WELLS =           0.0000                 WELLS =           0.0000
     HEAD DEP BOUNDS =       14871.2480       HEAD DEP BOUNDS =         314.1035

            TOTAL IN =      415389.9062              TOTAL IN =        1488.7979

          OUT:                                     OUT:
          ----                                     ----
             STORAGE =           0.0000               STORAGE =           0.0000
       CONSTANT HEAD =           0.0000         CONSTANT HEAD =           0.0000
               WELLS =       31500.0000                 WELLS =         500.0000
     HEAD DEP BOUNDS =      383889.9062       HEAD DEP BOUNDS =         988.7955

           TOTAL OUT =      415389.9062             TOTAL OUT =        1488.7954

            IN - OUT =           0.0000              IN - OUT =       2.4414E-03

 PERCENT DISCREPANCY =           0.00     PERCENT DISCREPANCY =           0.00






         TIME SUMMARY AT END OF TIME STEP   63 IN STRESS PERIOD    3
                    SECONDS     MINUTES      HOURS       DAYS        YEARS
                    -----------------------------------------------------------
   TIME STEP LENGTH  86400.      1440.0      24.000     1.00000     2.73785E-03
 STRESS PERIOD TIME 5.44320E+06  90720.      1512.0      63.000     0.17248    
         TOTAL TIME 1.41696E+07 2.36160E+05  3936.0      164.00     0.44901    
1
 
 SOLVING FOR HEAD 

 OUTPUT CONTROL FOR STRESS PERIOD    3   TIME STEP   64
    SAVE HEAD FOR ALL LAYERS
    SAVE DRAWDOWN FOR ALL LAYERS
    SAVE BUDGET
    PRINT HEAD FOR ALL LAYERS
    PRINT BUDGET
 UBDSV1 SAVING "         STORAGE" ON UNIT  53 AT TIME STEP 64, STRESS PERIOD   3
 UBDSV2 SAVING "   CONSTANT HEAD" ON UNIT  53 AT TIME STEP 64, STRESS PERIOD   3
 UBDSV1 SAVING "FLOW RIGHT FACE " ON UNIT  53 AT TIME STEP 64, STRESS PERIOD   3
 UBDSV1 SAVING "FLOW FRONT FACE " ON UNIT  53 AT TIME STEP 64, STRESS PERIOD   3
1
              HEAD IN LAYER   1 AT END OF TIME STEP  64 IN STRESS PERIOD    3
  ---------------------------------------------------------------------------

            1           2           3           4           5           6           7           8           9          10
 ........................................................................................................................
   1    9.995       9.530       8.994       8.333       7.513       6.508       5.266       3.752       1.982      2.0021E-02
   2    9.995       9.501       8.928       8.222       7.371       6.395       5.196       3.716       1.968      1.9872E-02
   3    9.995       9.445       8.792       7.966       7.005       6.131       5.048       3.646       1.940      1.9594E-02
   4    9.994       9.374       8.596       7.517       6.155       5.667       4.838       3.558       1.909      1.9276E-02
   5    9.993       9.331       8.444       6.974       3.944       5.106       4.675       3.506       1.893      1.9111E-02
   6    9.994       9.375       8.597       7.519       6.158       5.669       4.840       3.559       1.910      1.9280E-02
   7    9.995       9.447       8.796       7.972       7.012       6.137       5.053       3.649       1.942      1.9607E-02
   8    9.995       9.507       8.940       8.239       7.390       6.411       5.208       3.724       1.971      1.9906E-02
   9    9.996       9.544       9.022       8.374       7.560       6.550       5.296       3.770       1.990      2.0101E-02
  10    9.996       9.560       9.057       8.429       7.626       6.606       5.333       3.791       1.999      2.0192E-02

 HEAD WILL BE SAVED ON UNIT   51 AT END OF TIME STEP   64, STRESS PERIOD    3

 DRAWDOWN WILL BE SAVED ON UNIT   52 AT END OF TIME STEP   64, STRESS PERIOD    3
1
  VOLUMETRIC BUDGET FOR ENTIRE MODEL AT END OF TIME STEP   64, STRESS PERIOD   3
  ------------------------------------------------------------------------------

     CUMULATIVE VOLUMES      L**3       RATES FOR THIS TIME STEP      L**3/T
     ------------------                 ------------------------

           IN:                                      IN:
           ---                                      ---
             STORAGE =      401685.6562               STORAGE =        1167.0101
       CONSTANT HEAD =           0.0000         CONSTANT HEAD =           0.0000
               WELLS =           0.0000                 WELLS =           0.0000
     HEAD DEP BOUNDS =       15189.0615       HEAD DEP BOUNDS =         317.8130

            TOTAL IN =      416874.7188              TOTAL IN =        1484.8232

          OUT:                                     OUT:
          ----                                     ----
             STORAGE =           0.0000               STORAGE =           0.0000
       CONSTANT HEAD =           0.0000         CONSTANT HEAD =           0.0000
               WELLS =       32000.0000                 WELLS =         500.0000
     HEAD DEP BOUNDS =      384874.7188       HEAD DEP BOUNDS =         984.8017

           TOTAL OUT =      416874.7188             TOTAL OUT =        1484.8018

            IN - OUT =           0.0000              IN - OUT =       2.1484E-02

 PERCENT DISCREPANCY =           0.00     PERCENT DISCREPANCY =           0.00






         TIME SUMMARY AT END OF TIME STEP   64 IN STRESS PERIOD    3
                    SECONDS     MINUTES      HOURS       DAYS        YEARS
                    -----------------------------------------------------------
   TIME STEP LENGTH  86400.      1440.0      24.000     1.00000     2.73785E-03
 STRESS PERIOD TIME 5.52960E+06  92160.      1536.0      64.000     0.17522    
         TOTAL TIME 1.42560E+07 2.37600E+05  3960.0      165.00     0.45175    
1
 
 SOLVING FOR HEAD 

 OUTPUT CONTROL FOR STRESS PERIOD    3   TIME STEP   65
    SAVE HEAD FOR ALL LAYERS
    SAVE DRAWDOWN FOR ALL LAYERS
    SAVE BUDGET
    PRINT HEAD FOR ALL LAYERS
    PRINT BUDGET
 UBDSV1 SAVING "         STORAGE" ON UNIT  53 AT TIME STEP 65, STRESS PERIOD   3
 UBDSV2 SAVING "   CONSTANT HEAD" ON UNIT  53 AT TIME STEP 65, STRESS PERIOD   3
 UBDSV1 SAVING "FLOW RIGHT FACE " ON UNIT  53 AT TIME STEP 65, STRESS PERIOD   3
 UBDSV1 SAVING "FLOW FRONT FACE " ON UNIT  53 AT TIME STEP 65, STRESS PERIOD   3
1
              HEAD IN LAYER   1 AT END OF TIME STEP  65 IN STRESS PERIOD    3
  ---------------------------------------------------------------------------

            1           2           3           4           5           6           7           8           9          10
 ........................................................................................................................
   1    9.995       9.524       8.983       8.318       7.495       6.490       5.249       3.739       1.975      1.9947E-02
   2    9.995       9.495       8.917       8.206       7.352       6.375       5.178       3.703       1.960      1.9794E-02
   3    9.994       9.439       8.779       7.948       6.984       6.109       5.029       3.631       1.932      1.9511E-02
   4    9.994       9.367       8.582       7.497       6.132       5.644       4.817       3.543       1.901      1.9189E-02
   5    9.993       9.324       8.429       6.953       3.919       5.082       4.653       3.490       1.884      1.9022E-02
   6    9.994       9.368       8.584       7.499       6.134       5.646       4.819       3.544       1.901      1.9193E-02
   7    9.994       9.441       8.783       7.955       6.991       6.116       5.034       3.634       1.934      1.9525E-02
   8    9.995       9.501       8.929       8.223       7.372       6.392       5.191       3.710       1.964      1.9830E-02
   9    9.995       9.539       9.012       8.360       7.544       6.533       5.280       3.758       1.983      2.0031E-02
  10    9.996       9.555       9.048       8.416       7.610       6.590       5.318       3.779       1.992      2.0125E-02

 HEAD WILL BE SAVED ON UNIT   51 AT END OF TIME STEP   65, STRESS PERIOD    3

 DRAWDOWN WILL BE SAVED ON UNIT   52 AT END OF TIME STEP   65, STRESS PERIOD    3
1
  VOLUMETRIC BUDGET FOR ENTIRE MODEL AT END OF TIME STEP   65, STRESS PERIOD   3
  ------------------------------------------------------------------------------

     CUMULATIVE VOLUMES      L**3       RATES FOR THIS TIME STEP      L**3/T
     ------------------                 ------------------------

           IN:                                      IN:
           ---                                      ---
             STORAGE =      402845.0000               STORAGE =        1159.3564
       CONSTANT HEAD =           0.0000         CONSTANT HEAD =           0.0000
               WELLS =           0.0000                 WELLS =           0.0000
     HEAD DEP BOUNDS =       15510.5420       HEAD DEP BOUNDS =         321.4805

            TOTAL IN =      418355.5312              TOTAL IN =        1480.8369

          OUT:                                     OUT:
          ----                                     ----
             STORAGE =           0.0000               STORAGE =           0.0000
       CONSTANT HEAD =           0.0000         CONSTANT HEAD =           0.0000
               WELLS =       32500.0000                 WELLS =         500.0000
     HEAD DEP BOUNDS =      385855.5625       HEAD DEP BOUNDS =         980.8351

           TOTAL OUT =      418355.5625             TOTAL OUT =        1480.8351

            IN - OUT =      -3.1250E-02              IN - OUT =       1.8311E-03

 PERCENT DISCREPANCY =          -0.00     PERCENT DISCREPANCY =           0.00






         TIME SUMMARY AT END OF TIME STEP   65 IN STRESS PERIOD    3
                    SECONDS     MINUTES      HOURS       DAYS        YEARS
                    -----------------------------------------------------------
   TIME STEP LENGTH  86400.      1440.0      24.000     1.00000     2.73785E-03
 STRESS PERIOD TIME 5.61600E+06  93600.      1560.0      65.000     0.17796    
         TOTAL TIME 1.43424E+07 2.39040E+05  3984.0      166.00     0.45448    
1
 
 SOLVING FOR HEAD 

 OUTPUT CONTROL FOR STRESS PERIOD    3   TIME STEP   66
    SAVE HEAD FOR ALL LAYERS
    SAVE DRAWDOWN FOR ALL LAYERS
    SAVE BUDGET
    PRINT HEAD FOR ALL LAYERS
    PRINT BUDGET
 UBDSV1 SAVING "         STORAGE" ON UNIT  53 AT TIME STEP 66, STRESS PERIOD   3
 UBDSV2 SAVING "   CONSTANT HEAD" ON UNIT  53 AT TIME STEP 66, STRESS PERIOD   3
 UBDSV1 SAVING "FLOW RIGHT FACE " ON UNIT  53 AT TIME STEP 66, STRESS PERIOD   3
 UBDSV1 SAVING "FLOW FRONT FACE " ON UNIT  53 AT TIME STEP 66, STRESS PERIOD   3
1
              HEAD IN LAYER   1 AT END OF TIME STEP  66 IN STRESS PERIOD    3
  ---------------------------------------------------------------------------

            1           2           3           4           5           6           7           8           9          10
 ........................................................................................................................
   1    9.995       9.518       8.972       8.303       7.477       6.471       5.232       3.726       1.968      1.9873E-02
   2    9.995       9.489       8.905       8.190       7.333       6.356       5.160       3.689       1.953      1.9717E-02
   3    9.994       9.432       8.766       7.930       6.963       6.088       5.010       3.617       1.924      1.9429E-02
   4    9.994       9.360       8.568       7.478       6.109       5.621       4.797       3.527       1.892      1.9102E-02
   5    9.993       9.316       8.415       6.933       3.894       5.057       4.632       3.474       1.876      1.8933E-02
   6    9.994       9.361       8.570       7.480       6.112       5.623       4.798       3.528       1.893      1.9107E-02
   7    9.994       9.434       8.771       7.937       6.970       6.095       5.015       3.620       1.926      1.9444E-02
   8    9.995       9.496       8.918       8.208       7.353       6.374       5.173       3.697       1.956      1.9755E-02
   9    9.995       9.533       9.002       8.347       7.528       6.516       5.264       3.746       1.976      1.9961E-02
  10    9.996       9.551       9.039       8.403       7.595       6.574       5.304       3.768       1.986      2.0057E-02

 HEAD WILL BE SAVED ON UNIT   51 AT END OF TIME STEP   66, STRESS PERIOD    3

 DRAWDOWN WILL BE SAVED ON UNIT   52 AT END OF TIME STEP   66, STRESS PERIOD    3
1
  VOLUMETRIC BUDGET FOR ENTIRE MODEL AT END OF TIME STEP   66, STRESS PERIOD   3
  ------------------------------------------------------------------------------

     CUMULATIVE VOLUMES      L**3       RATES FOR THIS TIME STEP      L**3/T
     ------------------                 ------------------------

           IN:                                      IN:
           ---                                      ---
             STORAGE =      403996.7500               STORAGE =        1151.7531
       CONSTANT HEAD =           0.0000         CONSTANT HEAD =           0.0000
               WELLS =           0.0000                 WELLS =           0.0000
     HEAD DEP BOUNDS =       15835.6875       HEAD DEP BOUNDS =         325.1457

            TOTAL IN =      419832.4375              TOTAL IN =        1476.8987

          OUT:                                     OUT:
          ----                                     ----
             STORAGE =           0.0000               STORAGE =           0.0000
       CONSTANT HEAD =           0.0000         CONSTANT HEAD =           0.0000
               WELLS =       33000.0000                 WELLS =         500.0000
     HEAD DEP BOUNDS =      386832.4688       HEAD DEP BOUNDS =         976.8922

           TOTAL OUT =      419832.4688             TOTAL OUT =        1476.8921

            IN - OUT =      -3.1250E-02              IN - OUT =       6.5918E-03

 PERCENT DISCREPANCY =          -0.00     PERCENT DISCREPANCY =           0.00






         TIME SUMMARY AT END OF TIME STEP   66 IN STRESS PERIOD    3
                    SECONDS     MINUTES      HOURS       DAYS        YEARS
                    -----------------------------------------------------------
   TIME STEP LENGTH  86400.      1440.0      24.000     1.00000     2.73785E-03
 STRESS PERIOD TIME 5.70240E+06  95040.      1584.0      66.000     0.18070    
         TOTAL TIME 1.44288E+07 2.40480E+05  4008.0      167.00     0.45722    
1
 
 SOLVING FOR HEAD 

 OUTPUT CONTROL FOR STRESS PERIOD    3   TIME STEP   67
    SAVE HEAD FOR ALL LAYERS
    SAVE DRAWDOWN FOR ALL LAYERS
    SAVE BUDGET
    PRINT HEAD FOR ALL LAYERS
    PRINT BUDGET
 UBDSV1 SAVING "         STORAGE" ON UNIT  53 AT TIME STEP 67, STRESS PERIOD   3
 UBDSV2 SAVING "   CONSTANT HEAD" ON UNIT  53 AT TIME STEP 67, STRESS PERIOD   3
 UBDSV1 SAVING "FLOW RIGHT FACE " ON UNIT  53 AT TIME STEP 67, STRESS PERIOD   3
 UBDSV1 SAVING "FLOW FRONT FACE " ON UNIT  53 AT TIME STEP 67, STRESS PERIOD   3
1
              HEAD IN LAYER   1 AT END OF TIME STEP  67 IN STRESS PERIOD    3
  ---------------------------------------------------------------------------

            1           2           3           4           5           6           7           8           9          10
 ........................................................................................................................
   1    9.995       9.513       8.961       8.288       7.460       6.453       5.215       3.714       1.961      1.9799E-02
   2    9.995       9.483       8.894       8.174       7.314       6.336       5.142       3.676       1.945      1.9640E-02
   3    9.994       9.425       8.753       7.913       6.942       6.067       4.991       3.602       1.916      1.9348E-02
   4    9.994       9.353       8.554       7.458       6.086       5.598       4.776       3.512       1.884      1.9016E-02
   5    9.993       9.309       8.401       6.913       3.870       5.033       4.611       3.458       1.867      1.8845E-02
   6    9.994       9.354       8.556       7.461       6.089       5.600       4.778       3.513       1.884      1.9021E-02
   7    9.994       9.428       8.758       7.920       6.950       6.074       4.996       3.606       1.918      1.9363E-02
   8    9.995       9.490       8.907       8.193       7.335       6.355       5.156       3.684       1.949      1.9680E-02
   9    9.995       9.528       8.993       8.333       7.511       6.499       5.249       3.734       1.970      1.9891E-02
  10    9.996       9.546       9.030       8.390       7.580       6.558       5.289       3.756       1.979      1.9991E-02

 HEAD WILL BE SAVED ON UNIT   51 AT END OF TIME STEP   67, STRESS PERIOD    3

 DRAWDOWN WILL BE SAVED ON UNIT   52 AT END OF TIME STEP   67, STRESS PERIOD    3
1
  VOLUMETRIC BUDGET FOR ENTIRE MODEL AT END OF TIME STEP   67, STRESS PERIOD   3
  ------------------------------------------------------------------------------

     CUMULATIVE VOLUMES      L**3       RATES FOR THIS TIME STEP      L**3/T
     ------------------                 ------------------------

           IN:                                      IN:
           ---                                      ---
             STORAGE =      405140.9375               STORAGE =        1144.1893
       CONSTANT HEAD =           0.0000         CONSTANT HEAD =           0.0000
               WELLS =           0.0000                 WELLS =           0.0000
     HEAD DEP BOUNDS =       16164.4756       HEAD DEP BOUNDS =         328.7880

            TOTAL IN =      421305.4062              TOTAL IN =        1472.9773

          OUT:                                     OUT:
          ----                                     ----
             STORAGE =           0.0000               STORAGE =           0.0000
       CONSTANT HEAD =           0.0000         CONSTANT HEAD =           0.0000
               WELLS =       33500.0000                 WELLS =         500.0000
     HEAD DEP BOUNDS =      387805.4375       HEAD DEP BOUNDS =         972.9738

           TOTAL OUT =      421305.4375             TOTAL OUT =        1472.9739

            IN - OUT =      -3.1250E-02              IN - OUT =       3.4180E-03

 PERCENT DISCREPANCY =          -0.00     PERCENT DISCREPANCY =           0.00






         TIME SUMMARY AT END OF TIME STEP   67 IN STRESS PERIOD    3
                    SECONDS     MINUTES      HOURS       DAYS        YEARS
                    -----------------------------------------------------------
   TIME STEP LENGTH  86400.      1440.0      24.000     1.00000     2.73785E-03
 STRESS PERIOD TIME 5.78880E+06  96480.      1608.0      67.000     0.18344    
         TOTAL TIME 1.45152E+07 2.41920E+05  4032.0      168.00     0.45996    
1
 
 SOLVING FOR HEAD 

 OUTPUT CONTROL FOR STRESS PERIOD    3   TIME STEP   68
    SAVE HEAD FOR ALL LAYERS
    SAVE DRAWDOWN FOR ALL LAYERS
    SAVE BUDGET
    PRINT HEAD FOR ALL LAYERS
    PRINT BUDGET
 UBDSV1 SAVING "         STORAGE" ON UNIT  53 AT TIME STEP 68, STRESS PERIOD   3
 UBDSV2 SAVING "   CONSTANT HEAD" ON UNIT  53 AT TIME STEP 68, STRESS PERIOD   3
 UBDSV1 SAVING "FLOW RIGHT FACE " ON UNIT  53 AT TIME STEP 68, STRESS PERIOD   3
 UBDSV1 SAVING "FLOW FRONT FACE " ON UNIT  53 AT TIME STEP 68, STRESS PERIOD   3
1
              HEAD IN LAYER   1 AT END OF TIME STEP  68 IN STRESS PERIOD    3
  ---------------------------------------------------------------------------

            1           2           3           4           5           6           7           8           9          10
 ........................................................................................................................
   1    9.995       9.507       8.950       8.273       7.442       6.435       5.199       3.701       1.954      1.9726E-02
   2    9.995       9.477       8.882       8.158       7.296       6.317       5.125       3.662       1.938      1.9564E-02
   3    9.994       9.419       8.741       7.895       6.921       6.045       4.972       3.588       1.909      1.9267E-02
   4    9.994       9.346       8.541       7.439       6.064       5.575       4.756       3.497       1.876      1.8930E-02
   5    9.993       9.302       8.386       6.893       3.846       5.010       4.590       3.443       1.859      1.8758E-02
   6    9.994       9.347       8.542       7.442       6.066       5.577       4.758       3.498       1.876      1.8936E-02
   7    9.994       9.421       8.746       7.902       6.930       6.053       4.977       3.591       1.910      1.9283E-02
   8    9.995       9.484       8.896       8.177       7.317       6.336       5.139       3.671       1.942      1.9606E-02
   9    9.995       9.523       8.983       8.319       7.495       6.482       5.233       3.722       1.963      1.9822E-02
  10    9.995       9.541       9.021       8.378       7.565       6.542       5.274       3.745       1.973      1.9924E-02

 HEAD WILL BE SAVED ON UNIT   51 AT END OF TIME STEP   68, STRESS PERIOD    3

 DRAWDOWN WILL BE SAVED ON UNIT   52 AT END OF TIME STEP   68, STRESS PERIOD    3
1
  VOLUMETRIC BUDGET FOR ENTIRE MODEL AT END OF TIME STEP   68, STRESS PERIOD   3
  ------------------------------------------------------------------------------

     CUMULATIVE VOLUMES      L**3       RATES FOR THIS TIME STEP      L**3/T
     ------------------                 ------------------------

           IN:                                      IN:
           ---                                      ---
             STORAGE =      406277.5938               STORAGE =        1136.6680
       CONSTANT HEAD =           0.0000         CONSTANT HEAD =           0.0000
               WELLS =           0.0000                 WELLS =           0.0000
     HEAD DEP BOUNDS =       16496.8828       HEAD DEP BOUNDS =         332.4074

            TOTAL IN =      422774.4688              TOTAL IN =        1469.0754

          OUT:                                     OUT:
          ----                                     ----
             STORAGE =           0.0000               STORAGE =           0.0000
       CONSTANT HEAD =           0.0000         CONSTANT HEAD =           0.0000
               WELLS =       34000.0000                 WELLS =         500.0000
     HEAD DEP BOUNDS =      388774.5312       HEAD DEP BOUNDS =         969.0800

           TOTAL OUT =      422774.5312             TOTAL OUT =        1469.0800

            IN - OUT =      -6.2500E-02              IN - OUT =      -4.5166E-03

 PERCENT DISCREPANCY =          -0.00     PERCENT DISCREPANCY =          -0.00






         TIME SUMMARY AT END OF TIME STEP   68 IN STRESS PERIOD    3
                    SECONDS     MINUTES      HOURS       DAYS        YEARS
                    -----------------------------------------------------------
   TIME STEP LENGTH  86400.      1440.0      24.000     1.00000     2.73785E-03
 STRESS PERIOD TIME 5.87520E+06  97920.      1632.0      68.000     0.18617    
         TOTAL TIME 1.46016E+07 2.43360E+05  4056.0      169.00     0.46270    
1
 
 SOLVING FOR HEAD 

 OUTPUT CONTROL FOR STRESS PERIOD    3   TIME STEP   69
    SAVE HEAD FOR ALL LAYERS
    SAVE DRAWDOWN FOR ALL LAYERS
    SAVE BUDGET
    PRINT HEAD FOR ALL LAYERS
    PRINT BUDGET
 UBDSV1 SAVING "         STORAGE" ON UNIT  53 AT TIME STEP 69, STRESS PERIOD   3
 UBDSV2 SAVING "   CONSTANT HEAD" ON UNIT  53 AT TIME STEP 69, STRESS PERIOD   3
 UBDSV1 SAVING "FLOW RIGHT FACE " ON UNIT  53 AT TIME STEP 69, STRESS PERIOD   3
 UBDSV1 SAVING "FLOW FRONT FACE " ON UNIT  53 AT TIME STEP 69, STRESS PERIOD   3
1
              HEAD IN LAYER   1 AT END OF TIME STEP  69 IN STRESS PERIOD    3
  ---------------------------------------------------------------------------

            1           2           3           4           5           6           7           8           9          10
 ........................................................................................................................
   1    9.995       9.502       8.940       8.258       7.424       6.416       5.182       3.688       1.947      1.9653E-02
   2    9.995       9.471       8.871       8.142       7.277       6.297       5.108       3.649       1.930      1.9488E-02
   3    9.994       9.412       8.728       7.878       6.901       6.024       4.953       3.574       1.901      1.9186E-02
   4    9.994       9.339       8.527       7.420       6.041       5.552       4.736       3.482       1.867      1.8845E-02
   5    9.993       9.294       8.373       6.873       3.822       4.986       4.570       3.427       1.850      1.8671E-02
   6    9.994       9.340       8.529       7.423       6.044       5.555       4.738       3.483       1.868      1.8851E-02
   7    9.994       9.415       8.734       7.885       6.910       6.032       4.959       3.577       1.902      1.9203E-02
   8    9.995       9.478       8.885       8.162       7.299       6.318       5.123       3.658       1.935      1.9532E-02
   9    9.995       9.518       8.973       8.306       7.479       6.465       5.218       3.710       1.956      1.9753E-02
  10    9.995       9.536       9.012       8.365       7.549       6.526       5.259       3.733       1.966      1.9858E-02

 HEAD WILL BE SAVED ON UNIT   51 AT END OF TIME STEP   69, STRESS PERIOD    3

 DRAWDOWN WILL BE SAVED ON UNIT   52 AT END OF TIME STEP   69, STRESS PERIOD    3
1
  VOLUMETRIC BUDGET FOR ENTIRE MODEL AT END OF TIME STEP   69, STRESS PERIOD   3
  ------------------------------------------------------------------------------

     CUMULATIVE VOLUMES      L**3       RATES FOR THIS TIME STEP      L**3/T
     ------------------                 ------------------------

           IN:                                      IN:
           ---                                      ---
             STORAGE =      407406.7812               STORAGE =        1129.1960
       CONSTANT HEAD =           0.0000         CONSTANT HEAD =           0.0000
               WELLS =           0.0000                 WELLS =           0.0000
     HEAD DEP BOUNDS =       16832.9004       HEAD DEP BOUNDS =         336.0172

            TOTAL IN =      424239.6875              TOTAL IN =        1465.2133

          OUT:                                     OUT:
          ----                                     ----
             STORAGE =           0.0000               STORAGE =           0.0000
       CONSTANT HEAD =           0.0000         CONSTANT HEAD =           0.0000
               WELLS =       34500.0000                 WELLS =         500.0000
     HEAD DEP BOUNDS =      389739.7500       HEAD DEP BOUNDS =         965.2090

           TOTAL OUT =      424239.7500             TOTAL OUT =        1465.2090

            IN - OUT =      -6.2500E-02              IN - OUT =       4.2725E-03

 PERCENT DISCREPANCY =          -0.00     PERCENT DISCREPANCY =           0.00






         TIME SUMMARY AT END OF TIME STEP   69 IN STRESS PERIOD    3
                    SECONDS     MINUTES      HOURS       DAYS        YEARS
                    -----------------------------------------------------------
   TIME STEP LENGTH  86400.      1440.0      24.000     1.00000     2.73785E-03
 STRESS PERIOD TIME 5.96160E+06  99360.      1656.0      69.000     0.18891    
         TOTAL TIME 1.46880E+07 2.44800E+05  4080.0      170.00     0.46543    
1
 
 SOLVING FOR HEAD 

 OUTPUT CONTROL FOR STRESS PERIOD    3   TIME STEP   70
    SAVE HEAD FOR ALL LAYERS
    SAVE DRAWDOWN FOR ALL LAYERS
    SAVE BUDGET
    PRINT HEAD FOR ALL LAYERS
    PRINT BUDGET
 UBDSV1 SAVING "         STORAGE" ON UNIT  53 AT TIME STEP 70, STRESS PERIOD   3
 UBDSV2 SAVING "   CONSTANT HEAD" ON UNIT  53 AT TIME STEP 70, STRESS PERIOD   3
 UBDSV1 SAVING "FLOW RIGHT FACE " ON UNIT  53 AT TIME STEP 70, STRESS PERIOD   3
 UBDSV1 SAVING "FLOW FRONT FACE " ON UNIT  53 AT TIME STEP 70, STRESS PERIOD   3
1
              HEAD IN LAYER   1 AT END OF TIME STEP  70 IN STRESS PERIOD    3
  ---------------------------------------------------------------------------

            1           2           3           4           5           6           7           8           9          10
 ........................................................................................................................
   1    9.995       9.496       8.929       8.243       7.407       6.398       5.166       3.675       1.939      1.9581E-02
   2    9.995       9.465       8.859       8.126       7.258       6.278       5.090       3.636       1.923      1.9413E-02
   3    9.994       9.406       8.716       7.860       6.881       6.004       4.934       3.560       1.893      1.9106E-02
   4    9.993       9.332       8.514       7.401       6.019       5.530       4.716       3.467       1.859      1.8761E-02
   5    9.993       9.287       8.359       6.854       3.798       4.963       4.549       3.412       1.842      1.8585E-02
   6    9.993       9.333       8.516       7.404       6.022       5.532       4.718       3.468       1.860      1.8767E-02
   7    9.994       9.409       8.721       7.868       6.890       6.012       4.941       3.563       1.895      1.9124E-02
   8    9.995       9.473       8.874       8.147       7.282       6.299       5.106       3.645       1.928      1.9459E-02
   9    9.995       9.513       8.963       8.292       7.463       6.449       5.202       3.698       1.950      1.9685E-02
  10    9.995       9.532       9.002       8.352       7.534       6.510       5.245       3.722       1.960      1.9792E-02

 HEAD WILL BE SAVED ON UNIT   51 AT END OF TIME STEP   70, STRESS PERIOD    3

 DRAWDOWN WILL BE SAVED ON UNIT   52 AT END OF TIME STEP   70, STRESS PERIOD    3
1
  VOLUMETRIC BUDGET FOR ENTIRE MODEL AT END OF TIME STEP   70, STRESS PERIOD   3
  ------------------------------------------------------------------------------

     CUMULATIVE VOLUMES      L**3       RATES FOR THIS TIME STEP      L**3/T
     ------------------                 ------------------------

           IN:                                      IN:
           ---                                      ---
             STORAGE =      408528.5312               STORAGE =        1121.7590
       CONSTANT HEAD =           0.0000         CONSTANT HEAD =           0.0000
               WELLS =           0.0000                 WELLS =           0.0000
     HEAD DEP BOUNDS =       17172.4902       HEAD DEP BOUNDS =         339.5906

            TOTAL IN =      425701.0312              TOTAL IN =        1461.3496

          OUT:                                     OUT:
          ----                                     ----
             STORAGE =           0.0000               STORAGE =           0.0000
       CONSTANT HEAD =           0.0000         CONSTANT HEAD =           0.0000
               WELLS =       35000.0000                 WELLS =         500.0000
     HEAD DEP BOUNDS =      390701.1250       HEAD DEP BOUNDS =         961.3634

           TOTAL OUT =      425701.1250             TOTAL OUT =        1461.3634

            IN - OUT =      -9.3750E-02              IN - OUT =      -1.3794E-02

 PERCENT DISCREPANCY =          -0.00     PERCENT DISCREPANCY =          -0.00






         TIME SUMMARY AT END OF TIME STEP   70 IN STRESS PERIOD    3
                    SECONDS     MINUTES      HOURS       DAYS        YEARS
                    -----------------------------------------------------------
   TIME STEP LENGTH  86400.      1440.0      24.000     1.00000     2.73785E-03
 STRESS PERIOD TIME 6.04800E+06 1.00800E+05  1680.0      70.000     0.19165    
         TOTAL TIME 1.47744E+07 2.46240E+05  4104.0      171.00     0.46817    
1
 
 SOLVING FOR HEAD 

 OUTPUT CONTROL FOR STRESS PERIOD    3   TIME STEP   71
    SAVE HEAD FOR ALL LAYERS
    SAVE DRAWDOWN FOR ALL LAYERS
    SAVE BUDGET
    PRINT HEAD FOR ALL LAYERS
    PRINT BUDGET
 UBDSV1 SAVING "         STORAGE" ON UNIT  53 AT TIME STEP 71, STRESS PERIOD   3
 UBDSV2 SAVING "   CONSTANT HEAD" ON UNIT  53 AT TIME STEP 71, STRESS PERIOD   3
 UBDSV1 SAVING "FLOW RIGHT FACE " ON UNIT  53 AT TIME STEP 71, STRESS PERIOD   3
 UBDSV1 SAVING "FLOW FRONT FACE " ON UNIT  53 AT TIME STEP 71, STRESS PERIOD   3
1
              HEAD IN LAYER   1 AT END OF TIME STEP  71 IN STRESS PERIOD    3
  ---------------------------------------------------------------------------

            1           2           3           4           5           6           7           8           9          10
 ........................................................................................................................
   1    9.995       9.490       8.918       8.228       7.389       6.380       5.149       3.663       1.932      1.9509E-02
   2    9.995       9.459       8.848       8.111       7.240       6.259       5.073       3.622       1.916      1.9338E-02
   3    9.994       9.399       8.703       7.843       6.860       5.983       4.916       3.545       1.885      1.9026E-02
   4    9.993       9.325       8.500       7.383       5.997       5.507       4.697       3.452       1.851      1.8677E-02
   5    9.993       9.280       8.345       6.834       3.774       4.940       4.529       3.397       1.833      1.8500E-02
   6    9.993       9.326       8.502       7.386       6.000       5.510       4.699       3.453       1.852      1.8684E-02
   7    9.994       9.402       8.709       7.851       6.870       5.991       4.922       3.549       1.887      1.9046E-02
   8    9.995       9.467       8.863       8.132       7.264       6.281       5.089       3.633       1.920      1.9386E-02
   9    9.995       9.508       8.954       8.279       7.447       6.432       5.187       3.686       1.943      1.9617E-02
  10    9.995       9.527       8.993       8.339       7.519       6.495       5.230       3.710       1.954      1.9727E-02

 HEAD WILL BE SAVED ON UNIT   51 AT END OF TIME STEP   71, STRESS PERIOD    3

 DRAWDOWN WILL BE SAVED ON UNIT   52 AT END OF TIME STEP   71, STRESS PERIOD    3
1
  VOLUMETRIC BUDGET FOR ENTIRE MODEL AT END OF TIME STEP   71, STRESS PERIOD   3
  ------------------------------------------------------------------------------

     CUMULATIVE VOLUMES      L**3       RATES FOR THIS TIME STEP      L**3/T
     ------------------                 ------------------------

           IN:                                      IN:
           ---                                      ---
             STORAGE =      409642.9062               STORAGE =        1114.3800
       CONSTANT HEAD =           0.0000         CONSTANT HEAD =           0.0000
               WELLS =           0.0000                 WELLS =           0.0000
     HEAD DEP BOUNDS =       17515.6504       HEAD DEP BOUNDS =         343.1605

            TOTAL IN =      427158.5625              TOTAL IN =        1457.5405

          OUT:                                     OUT:
          ----                                     ----
             STORAGE =           0.0000               STORAGE =           0.0000
       CONSTANT HEAD =           0.0000         CONSTANT HEAD =           0.0000
               WELLS =       35500.0000                 WELLS =         500.0000
     HEAD DEP BOUNDS =      391658.6562       HEAD DEP BOUNDS =         957.5422

           TOTAL OUT =      427158.6562             TOTAL OUT =        1457.5422

            IN - OUT =      -9.3750E-02              IN - OUT =      -1.7090E-03

 PERCENT DISCREPANCY =          -0.00     PERCENT DISCREPANCY =          -0.00






         TIME SUMMARY AT END OF TIME STEP   71 IN STRESS PERIOD    3
                    SECONDS     MINUTES      HOURS       DAYS        YEARS
                    -----------------------------------------------------------
   TIME STEP LENGTH  86400.      1440.0      24.000     1.00000     2.73785E-03
 STRESS PERIOD TIME 6.13440E+06 1.02240E+05  1704.0      71.000     0.19439    
         TOTAL TIME 1.48608E+07 2.47680E+05  4128.0      172.00     0.47091    
1
 
 SOLVING FOR HEAD 

 OUTPUT CONTROL FOR STRESS PERIOD    3   TIME STEP   72
    SAVE HEAD FOR ALL LAYERS
    SAVE DRAWDOWN FOR ALL LAYERS
    SAVE BUDGET
    PRINT HEAD FOR ALL LAYERS
    PRINT BUDGET
 UBDSV1 SAVING "         STORAGE" ON UNIT  53 AT TIME STEP 72, STRESS PERIOD   3
 UBDSV2 SAVING "   CONSTANT HEAD" ON UNIT  53 AT TIME STEP 72, STRESS PERIOD   3
 UBDSV1 SAVING "FLOW RIGHT FACE " ON UNIT  53 AT TIME STEP 72, STRESS PERIOD   3
 UBDSV1 SAVING "FLOW FRONT FACE " ON UNIT  53 AT TIME STEP 72, STRESS PERIOD   3
1
              HEAD IN LAYER   1 AT END OF TIME STEP  72 IN STRESS PERIOD    3
  ---------------------------------------------------------------------------

            1           2           3           4           5           6           7           8           9          10
 ........................................................................................................................
   1    9.995       9.485       8.908       8.213       7.372       6.362       5.133       3.650       1.925      1.9437E-02
   2    9.995       9.454       8.837       8.095       7.221       6.240       5.056       3.609       1.908      1.9263E-02
   3    9.994       9.393       8.691       7.826       6.840       5.962       4.897       3.531       1.877      1.8947E-02
   4    9.993       9.318       8.487       7.364       5.975       5.485       4.677       3.437       1.843      1.8594E-02
   5    9.993       9.273       8.331       6.815       3.751       4.917       4.509       3.382       1.825      1.8415E-02
   6    9.993       9.319       8.489       7.367       5.979       5.488       4.679       3.438       1.843      1.8601E-02
   7    9.994       9.396       8.697       7.835       6.850       5.971       4.904       3.536       1.879      1.8968E-02
   8    9.995       9.462       8.853       8.117       7.246       6.263       5.073       3.620       1.913      1.9314E-02
   9    9.995       9.503       8.944       8.265       7.431       6.415       5.172       3.674       1.936      1.9549E-02
  10    9.995       9.522       8.984       8.327       7.504       6.479       5.216       3.699       1.947      1.9662E-02

 HEAD WILL BE SAVED ON UNIT   51 AT END OF TIME STEP   72, STRESS PERIOD    3

 DRAWDOWN WILL BE SAVED ON UNIT   52 AT END OF TIME STEP   72, STRESS PERIOD    3
1
  VOLUMETRIC BUDGET FOR ENTIRE MODEL AT END OF TIME STEP   72, STRESS PERIOD   3
  ------------------------------------------------------------------------------

     CUMULATIVE VOLUMES      L**3       RATES FOR THIS TIME STEP      L**3/T
     ------------------                 ------------------------

           IN:                                      IN:
           ---                                      ---
             STORAGE =      410749.9375               STORAGE =        1107.0297
       CONSTANT HEAD =           0.0000         CONSTANT HEAD =           0.0000
               WELLS =           0.0000                 WELLS =           0.0000
     HEAD DEP BOUNDS =       17862.3516       HEAD DEP BOUNDS =         346.7003

            TOTAL IN =      428612.2812              TOTAL IN =        1453.7300

          OUT:                                     OUT:
          ----                                     ----
             STORAGE =           0.0000               STORAGE =           0.0000
       CONSTANT HEAD =           0.0000         CONSTANT HEAD =           0.0000
               WELLS =       36000.0000                 WELLS =         500.0000
     HEAD DEP BOUNDS =      392612.4062       HEAD DEP BOUNDS =         953.7454

           TOTAL OUT =      428612.4062             TOTAL OUT =        1453.7454

            IN - OUT =          -0.1250              IN - OUT =      -1.5381E-02

 PERCENT DISCREPANCY =          -0.00     PERCENT DISCREPANCY =          -0.00






         TIME SUMMARY AT END OF TIME STEP   72 IN STRESS PERIOD    3
                    SECONDS     MINUTES      HOURS       DAYS        YEARS
                    -----------------------------------------------------------
   TIME STEP LENGTH  86400.      1440.0      24.000     1.00000     2.73785E-03
 STRESS PERIOD TIME 6.22080E+06 1.03680E+05  1728.0      72.000     0.19713    
         TOTAL TIME 1.49472E+07 2.49120E+05  4152.0      173.00     0.47365    
1
 
 SOLVING FOR HEAD 

 OUTPUT CONTROL FOR STRESS PERIOD    3   TIME STEP   73
    SAVE HEAD FOR ALL LAYERS
    SAVE DRAWDOWN FOR ALL LAYERS
    SAVE BUDGET
    PRINT HEAD FOR ALL LAYERS
    PRINT BUDGET
 UBDSV1 SAVING "         STORAGE" ON UNIT  53 AT TIME STEP 73, STRESS PERIOD   3
 UBDSV2 SAVING "   CONSTANT HEAD" ON UNIT  53 AT TIME STEP 73, STRESS PERIOD   3
 UBDSV1 SAVING "FLOW RIGHT FACE " ON UNIT  53 AT TIME STEP 73, STRESS PERIOD   3
 UBDSV1 SAVING "FLOW FRONT FACE " ON UNIT  53 AT TIME STEP 73, STRESS PERIOD   3
1
              HEAD IN LAYER   1 AT END OF TIME STEP  73 IN STRESS PERIOD    3
  ---------------------------------------------------------------------------

            1           2           3           4           5           6           7           8           9          10
 ........................................................................................................................
   1    9.995       9.479       8.897       8.198       7.355       6.344       5.117       3.638       1.919      1.9365E-02
   2    9.995       9.448       8.826       8.079       7.203       6.221       5.039       3.596       1.901      1.9189E-02
   3    9.994       9.387       8.679       7.809       6.820       5.942       4.879       3.518       1.870      1.8868E-02
   4    9.993       9.311       8.474       7.346       5.954       5.464       4.658       3.422       1.835      1.8511E-02
   5    9.993       9.266       8.318       6.796       3.728       4.895       4.489       3.367       1.817      1.8331E-02
   6    9.993       9.312       8.476       7.349       5.957       5.467       4.660       3.424       1.835      1.8519E-02
   7    9.994       9.390       8.685       7.818       6.831       5.951       4.886       3.522       1.872      1.8890E-02
   8    9.995       9.456       8.842       8.102       7.229       6.245       5.056       3.607       1.906      1.9242E-02
   9    9.995       9.498       8.934       8.252       7.415       6.399       5.157       3.662       1.930      1.9482E-02
  10    9.995       9.517       8.975       8.314       7.489       6.463       5.201       3.688       1.941      1.9597E-02

 HEAD WILL BE SAVED ON UNIT   51 AT END OF TIME STEP   73, STRESS PERIOD    3

 DRAWDOWN WILL BE SAVED ON UNIT   52 AT END OF TIME STEP   73, STRESS PERIOD    3
1
  VOLUMETRIC BUDGET FOR ENTIRE MODEL AT END OF TIME STEP   73, STRESS PERIOD   3
  ------------------------------------------------------------------------------

     CUMULATIVE VOLUMES      L**3       RATES FOR THIS TIME STEP      L**3/T
     ------------------                 ------------------------

           IN:                                      IN:
           ---                                      ---
             STORAGE =      411849.6562               STORAGE =        1099.7296
       CONSTANT HEAD =           0.0000         CONSTANT HEAD =           0.0000
               WELLS =           0.0000                 WELLS =           0.0000
     HEAD DEP BOUNDS =       18212.5742       HEAD DEP BOUNDS =         350.2232

            TOTAL IN =      430062.2188              TOTAL IN =        1449.9529

          OUT:                                     OUT:
          ----                                     ----
             STORAGE =           0.0000               STORAGE =           0.0000
       CONSTANT HEAD =           0.0000         CONSTANT HEAD =           0.0000
               WELLS =       36500.0000                 WELLS =         500.0000
     HEAD DEP BOUNDS =      393562.3750       HEAD DEP BOUNDS =         949.9737

           TOTAL OUT =      430062.3750             TOTAL OUT =        1449.9736

            IN - OUT =          -0.1562              IN - OUT =      -2.0752E-02

 PERCENT DISCREPANCY =          -0.00     PERCENT DISCREPANCY =          -0.00






         TIME SUMMARY AT END OF TIME STEP   73 IN STRESS PERIOD    3
                    SECONDS     MINUTES      HOURS       DAYS        YEARS
                    -----------------------------------------------------------
   TIME STEP LENGTH  86400.      1440.0      24.000     1.00000     2.73785E-03
 STRESS PERIOD TIME 6.30720E+06 1.05120E+05  1752.0      73.000     0.19986    
         TOTAL TIME 1.50336E+07 2.50560E+05  4176.0      174.00     0.47639    
1
 
 SOLVING FOR HEAD 

 OUTPUT CONTROL FOR STRESS PERIOD    3   TIME STEP   74
    SAVE HEAD FOR ALL LAYERS
    SAVE DRAWDOWN FOR ALL LAYERS
    SAVE BUDGET
    PRINT HEAD FOR ALL LAYERS
    PRINT BUDGET
 UBDSV1 SAVING "         STORAGE" ON UNIT  53 AT TIME STEP 74, STRESS PERIOD   3
 UBDSV2 SAVING "   CONSTANT HEAD" ON UNIT  53 AT TIME STEP 74, STRESS PERIOD   3
 UBDSV1 SAVING "FLOW RIGHT FACE " ON UNIT  53 AT TIME STEP 74, STRESS PERIOD   3
 UBDSV1 SAVING "FLOW FRONT FACE " ON UNIT  53 AT TIME STEP 74, STRESS PERIOD   3
1
              HEAD IN LAYER   1 AT END OF TIME STEP  74 IN STRESS PERIOD    3
  ---------------------------------------------------------------------------

            1           2           3           4           5           6           7           8           9          10
 ........................................................................................................................
   1    9.995       9.474       8.886       8.184       7.337       6.327       5.100       3.625       1.912      1.9294E-02
   2    9.995       9.442       8.814       8.064       7.185       6.203       5.022       3.583       1.894      1.9115E-02
   3    9.994       9.380       8.666       7.792       6.801       5.922       4.861       3.504       1.862      1.8790E-02
   4    9.993       9.304       8.461       7.328       5.932       5.442       4.638       3.408       1.827      1.8430E-02
   5    9.993       9.259       8.305       6.778       3.705       4.872       4.470       3.352       1.809      1.8248E-02
   6    9.993       9.306       8.463       7.331       5.936       5.445       4.641       3.409       1.828      1.8437E-02
   7    9.994       9.384       8.673       7.802       6.811       5.932       4.868       3.508       1.864      1.8813E-02
   8    9.995       9.450       8.831       8.087       7.211       6.227       5.040       3.595       1.899      1.9170E-02
   9    9.995       9.493       8.925       8.238       7.399       6.382       5.142       3.651       1.923      1.9415E-02
  10    9.995       9.513       8.966       8.302       7.474       6.448       5.187       3.677       1.935      1.9533E-02

 HEAD WILL BE SAVED ON UNIT   51 AT END OF TIME STEP   74, STRESS PERIOD    3

 DRAWDOWN WILL BE SAVED ON UNIT   52 AT END OF TIME STEP   74, STRESS PERIOD    3
1
  VOLUMETRIC BUDGET FOR ENTIRE MODEL AT END OF TIME STEP   74, STRESS PERIOD   3
  ------------------------------------------------------------------------------

     CUMULATIVE VOLUMES      L**3       RATES FOR THIS TIME STEP      L**3/T
     ------------------                 ------------------------

           IN:                                      IN:
           ---                                      ---
             STORAGE =      412942.1250               STORAGE =        1092.4766
       CONSTANT HEAD =           0.0000         CONSTANT HEAD =           0.0000
               WELLS =           0.0000                 WELLS =           0.0000
     HEAD DEP BOUNDS =       18566.3164       HEAD DEP BOUNDS =         353.7423

            TOTAL IN =      431508.4375              TOTAL IN =        1446.2189

          OUT:                                     OUT:
          ----                                     ----
             STORAGE =           0.0000               STORAGE =           0.0000
       CONSTANT HEAD =           0.0000         CONSTANT HEAD =           0.0000
               WELLS =       37000.0000                 WELLS =         500.0000
     HEAD DEP BOUNDS =      394508.5938       HEAD DEP BOUNDS =         946.2247

           TOTAL OUT =      431508.5938             TOTAL OUT =        1446.2246

            IN - OUT =          -0.1562              IN - OUT =      -5.7373E-03

 PERCENT DISCREPANCY =          -0.00     PERCENT DISCREPANCY =          -0.00






         TIME SUMMARY AT END OF TIME STEP   74 IN STRESS PERIOD    3
                    SECONDS     MINUTES      HOURS       DAYS        YEARS
                    -----------------------------------------------------------
   TIME STEP LENGTH  86400.      1440.0      24.000     1.00000     2.73785E-03
 STRESS PERIOD TIME 6.39360E+06 1.06560E+05  1776.0      74.000     0.20260    
         TOTAL TIME 1.51200E+07 2.52000E+05  4200.0      175.00     0.47912    
1
 
 SOLVING FOR HEAD 

 OUTPUT CONTROL FOR STRESS PERIOD    3   TIME STEP   75
    SAVE HEAD FOR ALL LAYERS
    SAVE DRAWDOWN FOR ALL LAYERS
    SAVE BUDGET
    PRINT HEAD FOR ALL LAYERS
    PRINT BUDGET
 UBDSV1 SAVING "         STORAGE" ON UNIT  53 AT TIME STEP 75, STRESS PERIOD   3
 UBDSV2 SAVING "   CONSTANT HEAD" ON UNIT  53 AT TIME STEP 75, STRESS PERIOD   3
 UBDSV1 SAVING "FLOW RIGHT FACE " ON UNIT  53 AT TIME STEP 75, STRESS PERIOD   3
 UBDSV1 SAVING "FLOW FRONT FACE " ON UNIT  53 AT TIME STEP 75, STRESS PERIOD   3
1
              HEAD IN LAYER   1 AT END OF TIME STEP  75 IN STRESS PERIOD    3
  ---------------------------------------------------------------------------

            1           2           3           4           5           6           7           8           9          10
 ........................................................................................................................
   1    9.995       9.468       8.876       8.169       7.320       6.309       5.084       3.613       1.905      1.9223E-02
   2    9.994       9.436       8.803       8.048       7.167       6.184       5.005       3.570       1.887      1.9042E-02
   3    9.994       9.374       8.654       7.775       6.781       5.902       4.843       3.490       1.855      1.8713E-02
   4    9.993       9.298       8.448       7.310       5.911       5.421       4.619       3.393       1.819      1.8348E-02
   5    9.993       9.252       8.291       6.759       3.683       4.850       4.450       3.337       1.801      1.8165E-02
   6    9.993       9.299       8.450       7.313       5.915       5.424       4.622       3.395       1.820      1.8357E-02
   7    9.994       9.378       8.662       7.785       6.792       5.912       4.851       3.495       1.857      1.8737E-02
   8    9.995       9.445       8.821       8.073       7.194       6.209       5.024       3.582       1.893      1.9099E-02
   9    9.995       9.488       8.915       8.225       7.384       6.366       5.127       3.639       1.917      1.9348E-02
  10    9.995       9.508       8.957       8.289       7.460       6.432       5.173       3.666       1.929      1.9469E-02

 HEAD WILL BE SAVED ON UNIT   51 AT END OF TIME STEP   75, STRESS PERIOD    3

 DRAWDOWN WILL BE SAVED ON UNIT   52 AT END OF TIME STEP   75, STRESS PERIOD    3
1
  VOLUMETRIC BUDGET FOR ENTIRE MODEL AT END OF TIME STEP   75, STRESS PERIOD   3
  ------------------------------------------------------------------------------

     CUMULATIVE VOLUMES      L**3       RATES FOR THIS TIME STEP      L**3/T
     ------------------                 ------------------------

           IN:                                      IN:
           ---                                      ---
             STORAGE =      414027.4062               STORAGE =        1085.2679
       CONSTANT HEAD =           0.0000         CONSTANT HEAD =           0.0000
               WELLS =           0.0000                 WELLS =           0.0000
     HEAD DEP BOUNDS =       18923.5410       HEAD DEP BOUNDS =         357.2244

            TOTAL IN =      432950.9375              TOTAL IN =        1442.4923

          OUT:                                     OUT:
          ----                                     ----
             STORAGE =           0.0000               STORAGE =           0.0000
       CONSTANT HEAD =           0.0000         CONSTANT HEAD =           0.0000
               WELLS =       37500.0000                 WELLS =         500.0000
     HEAD DEP BOUNDS =      395451.0938       HEAD DEP BOUNDS =         942.5032

           TOTAL OUT =      432951.0938             TOTAL OUT =        1442.5032

            IN - OUT =          -0.1562              IN - OUT =      -1.0864E-02

 PERCENT DISCREPANCY =          -0.00     PERCENT DISCREPANCY =          -0.00






         TIME SUMMARY AT END OF TIME STEP   75 IN STRESS PERIOD    3
                    SECONDS     MINUTES      HOURS       DAYS        YEARS
                    -----------------------------------------------------------
   TIME STEP LENGTH  86400.      1440.0      24.000     1.00000     2.73785E-03
 STRESS PERIOD TIME 6.48000E+06 1.08000E+05  1800.0      75.000     0.20534    
         TOTAL TIME 1.52064E+07 2.53440E+05  4224.0      176.00     0.48186    
1
 
 SOLVING FOR HEAD 

 OUTPUT CONTROL FOR STRESS PERIOD    3   TIME STEP   76
    SAVE HEAD FOR ALL LAYERS
    SAVE DRAWDOWN FOR ALL LAYERS
    SAVE BUDGET
    PRINT HEAD FOR ALL LAYERS
    PRINT BUDGET
 UBDSV1 SAVING "         STORAGE" ON UNIT  53 AT TIME STEP 76, STRESS PERIOD   3
 UBDSV2 SAVING "   CONSTANT HEAD" ON UNIT  53 AT TIME STEP 76, STRESS PERIOD   3
 UBDSV1 SAVING "FLOW RIGHT FACE " ON UNIT  53 AT TIME STEP 76, STRESS PERIOD   3
 UBDSV1 SAVING "FLOW FRONT FACE " ON UNIT  53 AT TIME STEP 76, STRESS PERIOD   3
1
              HEAD IN LAYER   1 AT END OF TIME STEP  76 IN STRESS PERIOD    3
  ---------------------------------------------------------------------------

            1           2           3           4           5           6           7           8           9          10
 ........................................................................................................................
   1    9.995       9.463       8.865       8.154       7.303       6.291       5.068       3.600       1.898      1.9153E-02
   2    9.994       9.430       8.792       8.033       7.149       6.165       4.988       3.558       1.880      1.8969E-02
   3    9.994       9.368       8.642       7.759       6.762       5.882       4.825       3.476       1.847      1.8636E-02
   4    9.993       9.291       8.435       7.292       5.890       5.399       4.600       3.379       1.811      1.8267E-02
   5    9.993       9.245       8.278       6.741       3.660       4.828       4.431       3.323       1.793      1.8083E-02
   6    9.993       9.292       8.438       7.296       5.894       5.403       4.603       3.381       1.812      1.8276E-02
   7    9.994       9.372       8.650       7.769       6.773       5.892       4.833       3.482       1.850      1.8661E-02
   8    9.994       9.439       8.810       8.058       7.177       6.191       5.008       3.570       1.886      1.9029E-02
   9    9.995       9.483       8.906       8.212       7.368       6.350       5.112       3.628       1.910      1.9282E-02
  10    9.995       9.503       8.948       8.276       7.445       6.417       5.159       3.655       1.922      1.9405E-02

 HEAD WILL BE SAVED ON UNIT   51 AT END OF TIME STEP   76, STRESS PERIOD    3

 DRAWDOWN WILL BE SAVED ON UNIT   52 AT END OF TIME STEP   76, STRESS PERIOD    3
1
  VOLUMETRIC BUDGET FOR ENTIRE MODEL AT END OF TIME STEP   76, STRESS PERIOD   3
  ------------------------------------------------------------------------------

     CUMULATIVE VOLUMES      L**3       RATES FOR THIS TIME STEP      L**3/T
     ------------------                 ------------------------

           IN:                                      IN:
           ---                                      ---
             STORAGE =      415105.5000               STORAGE =        1078.1016
       CONSTANT HEAD =           0.0000         CONSTANT HEAD =           0.0000
               WELLS =           0.0000                 WELLS =           0.0000
     HEAD DEP BOUNDS =       19284.2441       HEAD DEP BOUNDS =         360.7027

            TOTAL IN =      434389.7500              TOTAL IN =        1438.8042

          OUT:                                     OUT:
          ----                                     ----
             STORAGE =           0.0000               STORAGE =           0.0000
       CONSTANT HEAD =           0.0000         CONSTANT HEAD =           0.0000
               WELLS =       38000.0000                 WELLS =         500.0000
     HEAD DEP BOUNDS =      396389.9062       HEAD DEP BOUNDS =         938.8050

           TOTAL OUT =      434389.9062             TOTAL OUT =        1438.8049

            IN - OUT =          -0.1562              IN - OUT =      -7.3242E-04

 PERCENT DISCREPANCY =          -0.00     PERCENT DISCREPANCY =          -0.00






         TIME SUMMARY AT END OF TIME STEP   76 IN STRESS PERIOD    3
                    SECONDS     MINUTES      HOURS       DAYS        YEARS
                    -----------------------------------------------------------
   TIME STEP LENGTH  86400.      1440.0      24.000     1.00000     2.73785E-03
 STRESS PERIOD TIME 6.56640E+06 1.09440E+05  1824.0      76.000     0.20808    
         TOTAL TIME 1.52928E+07 2.54880E+05  4248.0      177.00     0.48460    
1
 
 SOLVING FOR HEAD 

 OUTPUT CONTROL FOR STRESS PERIOD    3   TIME STEP   77
    SAVE HEAD FOR ALL LAYERS
    SAVE DRAWDOWN FOR ALL LAYERS
    SAVE BUDGET
    PRINT HEAD FOR ALL LAYERS
    PRINT BUDGET
 UBDSV1 SAVING "         STORAGE" ON UNIT  53 AT TIME STEP 77, STRESS PERIOD   3
 UBDSV2 SAVING "   CONSTANT HEAD" ON UNIT  53 AT TIME STEP 77, STRESS PERIOD   3
 UBDSV1 SAVING "FLOW RIGHT FACE " ON UNIT  53 AT TIME STEP 77, STRESS PERIOD   3
 UBDSV1 SAVING "FLOW FRONT FACE " ON UNIT  53 AT TIME STEP 77, STRESS PERIOD   3
1
              HEAD IN LAYER   1 AT END OF TIME STEP  77 IN STRESS PERIOD    3
  ---------------------------------------------------------------------------

            1           2           3           4           5           6           7           8           9          10
 ........................................................................................................................
   1    9.995       9.457       8.855       8.140       7.286       6.273       5.052       3.588       1.891      1.9083E-02
   2    9.994       9.424       8.781       8.018       7.131       6.147       4.972       3.545       1.873      1.8896E-02
   3    9.994       9.361       8.631       7.742       6.742       5.862       4.807       3.463       1.840      1.8559E-02
   4    9.993       9.284       8.423       7.275       5.869       5.378       4.582       3.365       1.803      1.8187E-02
   5    9.993       9.239       8.265       6.722       3.638       4.807       4.412       3.308       1.785      1.8002E-02
   6    9.993       9.286       8.425       7.278       5.873       5.382       4.584       3.367       1.804      1.8197E-02
   7    9.994       9.365       8.638       7.753       6.754       5.873       4.816       3.468       1.842      1.8585E-02
   8    9.994       9.434       8.800       8.043       7.160       6.174       4.992       3.558       1.879      1.8958E-02
   9    9.995       9.478       8.896       8.198       7.352       6.334       5.097       3.616       1.904      1.9216E-02
  10    9.995       9.499       8.939       8.264       7.430       6.401       5.144       3.644       1.916      1.9342E-02

 HEAD WILL BE SAVED ON UNIT   51 AT END OF TIME STEP   77, STRESS PERIOD    3

 DRAWDOWN WILL BE SAVED ON UNIT   52 AT END OF TIME STEP   77, STRESS PERIOD    3
1
  VOLUMETRIC BUDGET FOR ENTIRE MODEL AT END OF TIME STEP   77, STRESS PERIOD   3
  ------------------------------------------------------------------------------

     CUMULATIVE VOLUMES      L**3       RATES FOR THIS TIME STEP      L**3/T
     ------------------                 ------------------------

           IN:                                      IN:
           ---                                      ---
             STORAGE =      416176.4688               STORAGE =        1070.9730
       CONSTANT HEAD =           0.0000         CONSTANT HEAD =           0.0000
               WELLS =           0.0000                 WELLS =           0.0000
     HEAD DEP BOUNDS =       19648.3945       HEAD DEP BOUNDS =         364.1504

            TOTAL IN =      435824.8750              TOTAL IN =        1435.1234

          OUT:                                     OUT:
          ----                                     ----
             STORAGE =           0.0000               STORAGE =           0.0000
       CONSTANT HEAD =           0.0000         CONSTANT HEAD =           0.0000
               WELLS =       38500.0000                 WELLS =         500.0000
     HEAD DEP BOUNDS =      397325.0312       HEAD DEP BOUNDS =         935.1277

           TOTAL OUT =      435825.0312             TOTAL OUT =        1435.1277

            IN - OUT =          -0.1562              IN - OUT =      -4.2725E-03

 PERCENT DISCREPANCY =          -0.00     PERCENT DISCREPANCY =          -0.00






         TIME SUMMARY AT END OF TIME STEP   77 IN STRESS PERIOD    3
                    SECONDS     MINUTES      HOURS       DAYS        YEARS
                    -----------------------------------------------------------
   TIME STEP LENGTH  86400.      1440.0      24.000     1.00000     2.73785E-03
 STRESS PERIOD TIME 6.65280E+06 1.10880E+05  1848.0      77.000     0.21081    
         TOTAL TIME 1.53792E+07 2.56320E+05  4272.0      178.00     0.48734    
1
 
 SOLVING FOR HEAD 

 OUTPUT CONTROL FOR STRESS PERIOD    3   TIME STEP   78
    SAVE HEAD FOR ALL LAYERS
    SAVE DRAWDOWN FOR ALL LAYERS
    SAVE BUDGET
    PRINT HEAD FOR ALL LAYERS
    PRINT BUDGET
 UBDSV1 SAVING "         STORAGE" ON UNIT  53 AT TIME STEP 78, STRESS PERIOD   3
 UBDSV2 SAVING "   CONSTANT HEAD" ON UNIT  53 AT TIME STEP 78, STRESS PERIOD   3
 UBDSV1 SAVING "FLOW RIGHT FACE " ON UNIT  53 AT TIME STEP 78, STRESS PERIOD   3
 UBDSV1 SAVING "FLOW FRONT FACE " ON UNIT  53 AT TIME STEP 78, STRESS PERIOD   3
1
              HEAD IN LAYER   1 AT END OF TIME STEP  78 IN STRESS PERIOD    3
  ---------------------------------------------------------------------------

            1           2           3           4           5           6           7           8           9          10
 ........................................................................................................................
   1    9.995       9.452       8.844       8.125       7.269       6.256       5.036       3.576       1.884      1.9013E-02
   2    9.994       9.419       8.770       8.002       7.113       6.129       4.955       3.532       1.866      1.8824E-02
   3    9.994       9.355       8.619       7.726       6.723       5.843       4.790       3.449       1.832      1.8483E-02
   4    9.993       9.278       8.410       7.257       5.849       5.357       4.563       3.351       1.795      1.8108E-02
   5    9.992       9.232       8.252       6.704       3.616       4.785       4.393       3.294       1.777      1.7921E-02
   6    9.993       9.279       8.413       7.261       5.853       5.361       4.566       3.353       1.796      1.8118E-02
   7    9.994       9.359       8.627       7.737       6.735       5.854       4.798       3.455       1.835      1.8510E-02
   8    9.994       9.429       8.789       8.029       7.143       6.156       4.976       3.545       1.872      1.8888E-02
   9    9.995       9.473       8.887       8.185       7.337       6.318       5.082       3.605       1.898      1.9151E-02
  10    9.995       9.494       8.930       8.252       7.415       6.386       5.130       3.633       1.910      1.9279E-02

 HEAD WILL BE SAVED ON UNIT   51 AT END OF TIME STEP   78, STRESS PERIOD    3

 DRAWDOWN WILL BE SAVED ON UNIT   52 AT END OF TIME STEP   78, STRESS PERIOD    3
1
  VOLUMETRIC BUDGET FOR ENTIRE MODEL AT END OF TIME STEP   78, STRESS PERIOD   3
  ------------------------------------------------------------------------------

     CUMULATIVE VOLUMES      L**3       RATES FOR THIS TIME STEP      L**3/T
     ------------------                 ------------------------

           IN:                                      IN:
           ---                                      ---
             STORAGE =      417240.3750               STORAGE =        1063.9005
       CONSTANT HEAD =           0.0000         CONSTANT HEAD =           0.0000
               WELLS =           0.0000                 WELLS =           0.0000
     HEAD DEP BOUNDS =       20015.9746       HEAD DEP BOUNDS =         367.5808

            TOTAL IN =      437256.3438              TOTAL IN =        1431.4813

          OUT:                                     OUT:
          ----                                     ----
             STORAGE =           0.0000               STORAGE =           0.0000
       CONSTANT HEAD =           0.0000         CONSTANT HEAD =           0.0000
               WELLS =       39000.0000                 WELLS =         500.0000
     HEAD DEP BOUNDS =      398256.5000       HEAD DEP BOUNDS =         931.4786

           TOTAL OUT =      437256.5000             TOTAL OUT =        1431.4785

            IN - OUT =          -0.1562              IN - OUT =       2.8076E-03

 PERCENT DISCREPANCY =          -0.00     PERCENT DISCREPANCY =           0.00






         TIME SUMMARY AT END OF TIME STEP   78 IN STRESS PERIOD    3
                    SECONDS     MINUTES      HOURS       DAYS        YEARS
                    -----------------------------------------------------------
   TIME STEP LENGTH  86400.      1440.0      24.000     1.00000     2.73785E-03
 STRESS PERIOD TIME 6.73920E+06 1.12320E+05  1872.0      78.000     0.21355    
         TOTAL TIME 1.54656E+07 2.57760E+05  4296.0      179.00     0.49008    
1
 
 SOLVING FOR HEAD 

 OUTPUT CONTROL FOR STRESS PERIOD    3   TIME STEP   79
    SAVE HEAD FOR ALL LAYERS
    SAVE DRAWDOWN FOR ALL LAYERS
    SAVE BUDGET
    PRINT HEAD FOR ALL LAYERS
    PRINT BUDGET
 UBDSV1 SAVING "         STORAGE" ON UNIT  53 AT TIME STEP 79, STRESS PERIOD   3
 UBDSV2 SAVING "   CONSTANT HEAD" ON UNIT  53 AT TIME STEP 79, STRESS PERIOD   3
 UBDSV1 SAVING "FLOW RIGHT FACE " ON UNIT  53 AT TIME STEP 79, STRESS PERIOD   3
 UBDSV1 SAVING "FLOW FRONT FACE " ON UNIT  53 AT TIME STEP 79, STRESS PERIOD   3
1
              HEAD IN LAYER   1 AT END OF TIME STEP  79 IN STRESS PERIOD    3
  ---------------------------------------------------------------------------

            1           2           3           4           5           6           7           8           9          10
 ........................................................................................................................
   1    9.995       9.446       8.834       8.111       7.252       6.239       5.020       3.564       1.877      1.8944E-02
   2    9.994       9.413       8.759       7.987       7.095       6.110       4.938       3.519       1.859      1.8752E-02
   3    9.994       9.349       8.607       7.710       6.704       5.823       4.772       3.436       1.825      1.8407E-02
   4    9.993       9.271       8.397       7.240       5.828       5.337       4.544       3.337       1.788      1.8029E-02
   5    9.992       9.225       8.240       6.686       3.595       4.764       4.374       3.280       1.769      1.7841E-02
   6    9.993       9.273       8.400       7.244       5.833       5.341       4.548       3.339       1.789      1.8039E-02
   7    9.994       9.353       8.615       7.721       6.717       5.835       4.781       3.442       1.828      1.8436E-02
   8    9.994       9.423       8.779       8.015       7.126       6.139       4.960       3.533       1.865      1.8819E-02
   9    9.995       9.468       8.877       8.172       7.321       6.302       5.068       3.593       1.891      1.9086E-02
  10    9.995       9.489       8.921       8.239       7.401       6.371       5.116       3.622       1.904      1.9217E-02

 HEAD WILL BE SAVED ON UNIT   51 AT END OF TIME STEP   79, STRESS PERIOD    3

 DRAWDOWN WILL BE SAVED ON UNIT   52 AT END OF TIME STEP   79, STRESS PERIOD    3
1
  VOLUMETRIC BUDGET FOR ENTIRE MODEL AT END OF TIME STEP   79, STRESS PERIOD   3
  ------------------------------------------------------------------------------

     CUMULATIVE VOLUMES      L**3       RATES FOR THIS TIME STEP      L**3/T
     ------------------                 ------------------------

           IN:                                      IN:
           ---                                      ---
             STORAGE =      418297.2500               STORAGE =        1056.8618
       CONSTANT HEAD =           0.0000         CONSTANT HEAD =           0.0000
               WELLS =           0.0000                 WELLS =           0.0000
     HEAD DEP BOUNDS =       20386.9551       HEAD DEP BOUNDS =         370.9807

            TOTAL IN =      438684.2188              TOTAL IN =        1427.8425

          OUT:                                     OUT:
          ----                                     ----
             STORAGE =           0.0000               STORAGE =           0.0000
       CONSTANT HEAD =           0.0000         CONSTANT HEAD =           0.0000
               WELLS =       39500.0000                 WELLS =         500.0000
     HEAD DEP BOUNDS =      399184.3438       HEAD DEP BOUNDS =         927.8501

           TOTAL OUT =      438684.3438             TOTAL OUT =        1427.8501

            IN - OUT =          -0.1250              IN - OUT =      -7.5684E-03

 PERCENT DISCREPANCY =          -0.00     PERCENT DISCREPANCY =          -0.00






         TIME SUMMARY AT END OF TIME STEP   79 IN STRESS PERIOD    3
                    SECONDS     MINUTES      HOURS       DAYS        YEARS
                    -----------------------------------------------------------
   TIME STEP LENGTH  86400.      1440.0      24.000     1.00000     2.73785E-03
 STRESS PERIOD TIME 6.82560E+06 1.13760E+05  1896.0      79.000     0.21629    
         TOTAL TIME 1.55520E+07 2.59200E+05  4320.0      180.00     0.49281    
1
 
 SOLVING FOR HEAD 

 OUTPUT CONTROL FOR STRESS PERIOD    3   TIME STEP   80
    SAVE HEAD FOR ALL LAYERS
    SAVE DRAWDOWN FOR ALL LAYERS
    SAVE BUDGET
    PRINT HEAD FOR ALL LAYERS
    PRINT BUDGET
 UBDSV1 SAVING "         STORAGE" ON UNIT  53 AT TIME STEP 80, STRESS PERIOD   3
 UBDSV2 SAVING "   CONSTANT HEAD" ON UNIT  53 AT TIME STEP 80, STRESS PERIOD   3
 UBDSV1 SAVING "FLOW RIGHT FACE " ON UNIT  53 AT TIME STEP 80, STRESS PERIOD   3
 UBDSV1 SAVING "FLOW FRONT FACE " ON UNIT  53 AT TIME STEP 80, STRESS PERIOD   3
1
              HEAD IN LAYER   1 AT END OF TIME STEP  80 IN STRESS PERIOD    3
  ---------------------------------------------------------------------------

            1           2           3           4           5           6           7           8           9          10
 ........................................................................................................................
   1    9.994       9.441       8.823       8.096       7.235       6.221       5.005       3.552       1.871      1.8875E-02
   2    9.994       9.407       8.748       7.972       7.078       6.092       4.922       3.507       1.852      1.8681E-02
   3    9.994       9.343       8.595       7.693       6.685       5.804       4.755       3.423       1.818      1.8332E-02
   4    9.993       9.265       8.385       7.222       5.808       5.316       4.526       3.323       1.780      1.7951E-02
   5    9.992       9.219       8.227       6.669       3.573       4.743       4.355       3.265       1.761      1.7762E-02
   6    9.993       9.267       8.388       7.227       5.813       5.320       4.529       3.325       1.781      1.7962E-02
   7    9.994       9.348       8.604       7.705       6.698       5.816       4.764       3.429       1.821      1.8362E-02
   8    9.994       9.418       8.769       8.000       7.109       6.121       4.944       3.521       1.859      1.8750E-02
   9    9.995       9.463       8.868       8.159       7.306       6.286       5.053       3.582       1.885      1.9021E-02
  10    9.995       9.485       8.912       8.227       7.386       6.356       5.102       3.611       1.898      1.9154E-02

 HEAD WILL BE SAVED ON UNIT   51 AT END OF TIME STEP   80, STRESS PERIOD    3

 DRAWDOWN WILL BE SAVED ON UNIT   52 AT END OF TIME STEP   80, STRESS PERIOD    3
1
  VOLUMETRIC BUDGET FOR ENTIRE MODEL AT END OF TIME STEP   80, STRESS PERIOD   3
  ------------------------------------------------------------------------------

     CUMULATIVE VOLUMES      L**3       RATES FOR THIS TIME STEP      L**3/T
     ------------------                 ------------------------

           IN:                                      IN:
           ---                                      ---
             STORAGE =      419347.1250               STORAGE =        1049.8829
       CONSTANT HEAD =           0.0000         CONSTANT HEAD =           0.0000
               WELLS =           0.0000                 WELLS =           0.0000
     HEAD DEP BOUNDS =       20761.3320       HEAD DEP BOUNDS =         374.3765

            TOTAL IN =      440108.4688              TOTAL IN =        1424.2595

          OUT:                                     OUT:
          ----                                     ----
             STORAGE =           0.0000               STORAGE =           0.0000
       CONSTANT HEAD =           0.0000         CONSTANT HEAD =           0.0000
               WELLS =       40000.0000                 WELLS =         500.0000
     HEAD DEP BOUNDS =      400108.5938       HEAD DEP BOUNDS =         924.2479

           TOTAL OUT =      440108.5938             TOTAL OUT =        1424.2479

            IN - OUT =          -0.1250              IN - OUT =       1.1597E-02

 PERCENT DISCREPANCY =          -0.00     PERCENT DISCREPANCY =           0.00






         TIME SUMMARY AT END OF TIME STEP   80 IN STRESS PERIOD    3
                    SECONDS     MINUTES      HOURS       DAYS        YEARS
                    -----------------------------------------------------------
   TIME STEP LENGTH  86400.      1440.0      24.000     1.00000     2.73785E-03
 STRESS PERIOD TIME 6.91200E+06 1.15200E+05  1920.0      80.000     0.21903    
         TOTAL TIME 1.56384E+07 2.60640E+05  4344.0      181.00     0.49555    
1
 
 SOLVING FOR HEAD 

 OUTPUT CONTROL FOR STRESS PERIOD    3   TIME STEP   81
    SAVE HEAD FOR ALL LAYERS
    SAVE DRAWDOWN FOR ALL LAYERS
    SAVE BUDGET
    PRINT HEAD FOR ALL LAYERS
    PRINT BUDGET
 UBDSV1 SAVING "         STORAGE" ON UNIT  53 AT TIME STEP 81, STRESS PERIOD   3
 UBDSV2 SAVING "   CONSTANT HEAD" ON UNIT  53 AT TIME STEP 81, STRESS PERIOD   3
 UBDSV1 SAVING "FLOW RIGHT FACE " ON UNIT  53 AT TIME STEP 81, STRESS PERIOD   3
 UBDSV1 SAVING "FLOW FRONT FACE " ON UNIT  53 AT TIME STEP 81, STRESS PERIOD   3
1
              HEAD IN LAYER   1 AT END OF TIME STEP  81 IN STRESS PERIOD    3
  ---------------------------------------------------------------------------

            1           2           3           4           5           6           7           8           9          10
 ........................................................................................................................
   1    9.994       9.435       8.813       8.082       7.218       6.204       4.989       3.540       1.864      1.8806E-02
   2    9.994       9.402       8.737       7.957       7.060       6.074       4.906       3.494       1.845      1.8610E-02
   3    9.993       9.337       8.584       7.677       6.666       5.784       4.738       3.410       1.810      1.8258E-02
   4    9.993       9.258       8.373       7.205       5.788       5.296       4.508       3.309       1.773      1.7873E-02
   5    9.992       9.212       8.214       6.651       3.552       4.722       4.337       3.251       1.754      1.7683E-02
   6    9.993       9.260       8.376       7.210       5.793       5.300       4.511       3.311       1.774      1.7884E-02
   7    9.994       9.342       8.593       7.690       6.680       5.797       4.747       3.416       1.813      1.8289E-02
   8    9.994       9.412       8.758       7.986       7.093       6.104       4.929       3.509       1.852      1.8682E-02
   9    9.995       9.458       8.858       8.146       7.291       6.270       5.039       3.571       1.879      1.8957E-02
  10    9.995       9.480       8.903       8.214       7.372       6.341       5.089       3.600       1.892      1.9092E-02

 HEAD WILL BE SAVED ON UNIT   51 AT END OF TIME STEP   81, STRESS PERIOD    3

 DRAWDOWN WILL BE SAVED ON UNIT   52 AT END OF TIME STEP   81, STRESS PERIOD    3
1
  VOLUMETRIC BUDGET FOR ENTIRE MODEL AT END OF TIME STEP   81, STRESS PERIOD   3
  ------------------------------------------------------------------------------

     CUMULATIVE VOLUMES      L**3       RATES FOR THIS TIME STEP      L**3/T
     ------------------                 ------------------------

           IN:                                      IN:
           ---                                      ---
             STORAGE =      420390.0625               STORAGE =        1042.9304
       CONSTANT HEAD =           0.0000         CONSTANT HEAD =           0.0000
               WELLS =           0.0000                 WELLS =           0.0000
     HEAD DEP BOUNDS =       21139.0742       HEAD DEP BOUNDS =         377.7417

            TOTAL IN =      441529.1250              TOTAL IN =        1420.6721

          OUT:                                     OUT:
          ----                                     ----
             STORAGE =           0.0000               STORAGE =           0.0000
       CONSTANT HEAD =           0.0000         CONSTANT HEAD =           0.0000
               WELLS =       40500.0000                 WELLS =         500.0000
     HEAD DEP BOUNDS =      401029.2500       HEAD DEP BOUNDS =         920.6655

           TOTAL OUT =      441529.2500             TOTAL OUT =        1420.6655

            IN - OUT =          -0.1250              IN - OUT =       6.5918E-03

 PERCENT DISCREPANCY =          -0.00     PERCENT DISCREPANCY =           0.00






         TIME SUMMARY AT END OF TIME STEP   81 IN STRESS PERIOD    3
                    SECONDS     MINUTES      HOURS       DAYS        YEARS
                    -----------------------------------------------------------
   TIME STEP LENGTH  86400.      1440.0      24.000     1.00000     2.73785E-03
 STRESS PERIOD TIME 6.99840E+06 1.16640E+05  1944.0      81.000     0.22177    
         TOTAL TIME 1.57248E+07 2.62080E+05  4368.0      182.00     0.49829    
1
 
 SOLVING FOR HEAD 

 OUTPUT CONTROL FOR STRESS PERIOD    3   TIME STEP   82
    SAVE HEAD FOR ALL LAYERS
    SAVE DRAWDOWN FOR ALL LAYERS
    SAVE BUDGET
    PRINT HEAD FOR ALL LAYERS
    PRINT BUDGET
 UBDSV1 SAVING "         STORAGE" ON UNIT  53 AT TIME STEP 82, STRESS PERIOD   3
 UBDSV2 SAVING "   CONSTANT HEAD" ON UNIT  53 AT TIME STEP 82, STRESS PERIOD   3
 UBDSV1 SAVING "FLOW RIGHT FACE " ON UNIT  53 AT TIME STEP 82, STRESS PERIOD   3
 UBDSV1 SAVING "FLOW FRONT FACE " ON UNIT  53 AT TIME STEP 82, STRESS PERIOD   3
1
              HEAD IN LAYER   1 AT END OF TIME STEP  82 IN STRESS PERIOD    3
  ---------------------------------------------------------------------------

            1           2           3           4           5           6           7           8           9          10
 ........................................................................................................................
   1    9.994       9.430       8.803       8.068       7.202       6.187       4.973       3.528       1.857      1.8737E-02
   2    9.994       9.396       8.726       7.942       7.043       6.056       4.890       3.482       1.838      1.8539E-02
   3    9.993       9.331       8.572       7.661       6.648       5.765       4.720       3.397       1.803      1.8184E-02
   4    9.993       9.252       8.361       7.189       5.768       5.276       4.490       3.295       1.765      1.7796E-02
   5    9.992       9.206       8.202       6.634       3.531       4.701       4.318       3.238       1.746      1.7604E-02
   6    9.993       9.254       8.364       7.193       5.773       5.280       4.494       3.298       1.766      1.7807E-02
   7    9.993       9.336       8.581       7.674       6.662       5.778       4.731       3.403       1.806      1.8216E-02
   8    9.994       9.407       8.748       7.972       7.076       6.087       4.913       3.497       1.845      1.8614E-02
   9    9.995       9.453       8.849       8.133       7.275       6.254       5.024       3.560       1.873      1.8893E-02
  10    9.995       9.475       8.895       8.202       7.357       6.326       5.075       3.589       1.886      1.9031E-02

 HEAD WILL BE SAVED ON UNIT   51 AT END OF TIME STEP   82, STRESS PERIOD    3

 DRAWDOWN WILL BE SAVED ON UNIT   52 AT END OF TIME STEP   82, STRESS PERIOD    3
1
  VOLUMETRIC BUDGET FOR ENTIRE MODEL AT END OF TIME STEP   82, STRESS PERIOD   3
  ------------------------------------------------------------------------------

     CUMULATIVE VOLUMES      L**3       RATES FOR THIS TIME STEP      L**3/T
     ------------------                 ------------------------

           IN:                                      IN:
           ---                                      ---
             STORAGE =      421426.0938               STORAGE =        1036.0247
       CONSTANT HEAD =           0.0000         CONSTANT HEAD =           0.0000
               WELLS =           0.0000                 WELLS =           0.0000
     HEAD DEP BOUNDS =       21520.1641       HEAD DEP BOUNDS =         381.0895

            TOTAL IN =      442946.2500              TOTAL IN =        1417.1141

          OUT:                                     OUT:
          ----                                     ----
             STORAGE =           0.0000               STORAGE =           0.0000
       CONSTANT HEAD =           0.0000         CONSTANT HEAD =           0.0000
               WELLS =       41000.0000                 WELLS =         500.0000
     HEAD DEP BOUNDS =      401946.3438       HEAD DEP BOUNDS =         917.1085

           TOTAL OUT =      442946.3438             TOTAL OUT =        1417.1085

            IN - OUT =      -9.3750E-02              IN - OUT =       5.6152E-03

 PERCENT DISCREPANCY =          -0.00     PERCENT DISCREPANCY =           0.00






         TIME SUMMARY AT END OF TIME STEP   82 IN STRESS PERIOD    3
                    SECONDS     MINUTES      HOURS       DAYS        YEARS
                    -----------------------------------------------------------
   TIME STEP LENGTH  86400.      1440.0      24.000     1.00000     2.73785E-03
 STRESS PERIOD TIME 7.08480E+06 1.18080E+05  1968.0      82.000     0.22450    
         TOTAL TIME 1.58112E+07 2.63520E+05  4392.0      183.00     0.50103    
1
 
 SOLVING FOR HEAD 

 OUTPUT CONTROL FOR STRESS PERIOD    3   TIME STEP   83
    SAVE HEAD FOR ALL LAYERS
    SAVE DRAWDOWN FOR ALL LAYERS
    SAVE BUDGET
    PRINT HEAD FOR ALL LAYERS
    PRINT BUDGET
 UBDSV1 SAVING "         STORAGE" ON UNIT  53 AT TIME STEP 83, STRESS PERIOD   3
 UBDSV2 SAVING "   CONSTANT HEAD" ON UNIT  53 AT TIME STEP 83, STRESS PERIOD   3
 UBDSV1 SAVING "FLOW RIGHT FACE " ON UNIT  53 AT TIME STEP 83, STRESS PERIOD   3
 UBDSV1 SAVING "FLOW FRONT FACE " ON UNIT  53 AT TIME STEP 83, STRESS PERIOD   3
1
              HEAD IN LAYER   1 AT END OF TIME STEP  83 IN STRESS PERIOD    3
  ---------------------------------------------------------------------------

            1           2           3           4           5           6           7           8           9          10
 ........................................................................................................................
   1    9.994       9.425       8.792       8.054       7.185       6.170       4.958       3.516       1.851      1.8670E-02
   2    9.994       9.390       8.716       7.927       7.025       6.039       4.873       3.470       1.831      1.8469E-02
   3    9.993       9.325       8.561       7.646       6.629       5.746       4.703       3.384       1.796      1.8110E-02
   4    9.993       9.246       8.349       7.172       5.748       5.256       4.472       3.282       1.758      1.7719E-02
   5    9.992       9.199       8.190       6.617       3.510       4.680       4.300       3.224       1.739      1.7527E-02
   6    9.993       9.248       8.352       7.176       5.754       5.260       4.476       3.284       1.759      1.7732E-02
   7    9.993       9.330       8.570       7.659       6.644       5.760       4.714       3.390       1.799      1.8144E-02
   8    9.994       9.402       8.738       7.958       7.060       6.070       4.898       3.485       1.839      1.8546E-02
   9    9.995       9.449       8.840       8.120       7.260       6.238       5.010       3.549       1.866      1.8830E-02
  10    9.995       9.471       8.886       8.190       7.343       6.311       5.061       3.579       1.880      1.8969E-02

 HEAD WILL BE SAVED ON UNIT   51 AT END OF TIME STEP   83, STRESS PERIOD    3

 DRAWDOWN WILL BE SAVED ON UNIT   52 AT END OF TIME STEP   83, STRESS PERIOD    3
1
  VOLUMETRIC BUDGET FOR ENTIRE MODEL AT END OF TIME STEP   83, STRESS PERIOD   3
  ------------------------------------------------------------------------------

     CUMULATIVE VOLUMES      L**3       RATES FOR THIS TIME STEP      L**3/T
     ------------------                 ------------------------

           IN:                                      IN:
           ---                                      ---
             STORAGE =      422455.2500               STORAGE =        1029.1647
       CONSTANT HEAD =           0.0000         CONSTANT HEAD =           0.0000
               WELLS =           0.0000                 WELLS =           0.0000
     HEAD DEP BOUNDS =       21904.5703       HEAD DEP BOUNDS =         384.4066

            TOTAL IN =      444359.8125              TOTAL IN =        1413.5713

          OUT:                                     OUT:
          ----                                     ----
             STORAGE =           0.0000               STORAGE =           0.0000
       CONSTANT HEAD =           0.0000         CONSTANT HEAD =           0.0000
               WELLS =       41500.0000                 WELLS =         500.0000
     HEAD DEP BOUNDS =      402859.9062       HEAD DEP BOUNDS =         913.5752

           TOTAL OUT =      444359.9062             TOTAL OUT =        1413.5752

            IN - OUT =      -9.3750E-02              IN - OUT =      -3.9062E-03

 PERCENT DISCREPANCY =          -0.00     PERCENT DISCREPANCY =          -0.00






         TIME SUMMARY AT END OF TIME STEP   83 IN STRESS PERIOD    3
                    SECONDS     MINUTES      HOURS       DAYS        YEARS
                    -----------------------------------------------------------
   TIME STEP LENGTH  86400.      1440.0      24.000     1.00000     2.73785E-03
 STRESS PERIOD TIME 7.17120E+06 1.19520E+05  1992.0      83.000     0.22724    
         TOTAL TIME 1.58976E+07 2.64960E+05  4416.0      184.00     0.50376    
1
 
 SOLVING FOR HEAD 

 OUTPUT CONTROL FOR STRESS PERIOD    3   TIME STEP   84
    SAVE HEAD FOR ALL LAYERS
    SAVE DRAWDOWN FOR ALL LAYERS
    SAVE BUDGET
    PRINT HEAD FOR ALL LAYERS
    PRINT BUDGET
 UBDSV1 SAVING "         STORAGE" ON UNIT  53 AT TIME STEP 84, STRESS PERIOD   3
 UBDSV2 SAVING "   CONSTANT HEAD" ON UNIT  53 AT TIME STEP 84, STRESS PERIOD   3
 UBDSV1 SAVING "FLOW RIGHT FACE " ON UNIT  53 AT TIME STEP 84, STRESS PERIOD   3
 UBDSV1 SAVING "FLOW FRONT FACE " ON UNIT  53 AT TIME STEP 84, STRESS PERIOD   3
1
              HEAD IN LAYER   1 AT END OF TIME STEP  84 IN STRESS PERIOD    3
  ---------------------------------------------------------------------------

            1           2           3           4           5           6           7           8           9          10
 ........................................................................................................................
   1    9.994       9.419       8.782       8.039       7.168       6.153       4.942       3.504       1.844      1.8602E-02
   2    9.994       9.385       8.705       7.913       7.008       6.021       4.857       3.457       1.824      1.8399E-02
   3    9.993       9.319       8.549       7.630       6.611       5.728       4.687       3.371       1.789      1.8037E-02
   4    9.993       9.240       8.337       7.155       5.729       5.236       4.454       3.268       1.750      1.7643E-02
   5    9.992       9.193       8.178       6.600       3.489       4.660       4.282       3.210       1.731      1.7450E-02
   6    9.993       9.241       8.340       7.160       5.734       5.241       4.458       3.271       1.751      1.7656E-02
   7    9.993       9.324       8.559       7.643       6.626       5.742       4.697       3.378       1.792      1.8072E-02
   8    9.994       9.396       8.728       7.944       7.043       6.053       4.883       3.474       1.832      1.8479E-02
   9    9.995       9.444       8.830       8.107       7.245       6.223       4.996       3.538       1.860      1.8766E-02
  10    9.995       9.466       8.877       8.178       7.328       6.296       5.047       3.568       1.874      1.8909E-02

 HEAD WILL BE SAVED ON UNIT   51 AT END OF TIME STEP   84, STRESS PERIOD    3

 DRAWDOWN WILL BE SAVED ON UNIT   52 AT END OF TIME STEP   84, STRESS PERIOD    3
1
  VOLUMETRIC BUDGET FOR ENTIRE MODEL AT END OF TIME STEP   84, STRESS PERIOD   3
  ------------------------------------------------------------------------------

     CUMULATIVE VOLUMES      L**3       RATES FOR THIS TIME STEP      L**3/T
     ------------------                 ------------------------

           IN:                                      IN:
           ---                                      ---
             STORAGE =      423477.5938               STORAGE =        1022.3517
       CONSTANT HEAD =           0.0000         CONSTANT HEAD =           0.0000
               WELLS =           0.0000                 WELLS =           0.0000
     HEAD DEP BOUNDS =       22292.2891       HEAD DEP BOUNDS =         387.7195

            TOTAL IN =      445769.8750              TOTAL IN =        1410.0713

          OUT:                                     OUT:
          ----                                     ----
             STORAGE =           0.0000               STORAGE =           0.0000
       CONSTANT HEAD =           0.0000         CONSTANT HEAD =           0.0000
               WELLS =       42000.0000                 WELLS =         500.0000
     HEAD DEP BOUNDS =      403769.9688       HEAD DEP BOUNDS =         910.0662

           TOTAL OUT =      445769.9688             TOTAL OUT =        1410.0662

            IN - OUT =      -9.3750E-02              IN - OUT =       5.1270E-03

 PERCENT DISCREPANCY =          -0.00     PERCENT DISCREPANCY =           0.00






         TIME SUMMARY AT END OF TIME STEP   84 IN STRESS PERIOD    3
                    SECONDS     MINUTES      HOURS       DAYS        YEARS
                    -----------------------------------------------------------
   TIME STEP LENGTH  86400.      1440.0      24.000     1.00000     2.73785E-03
 STRESS PERIOD TIME 7.25760E+06 1.20960E+05  2016.0      84.000     0.22998    
         TOTAL TIME 1.59840E+07 2.66400E+05  4440.0      185.00     0.50650    
1
 
 SOLVING FOR HEAD 

 OUTPUT CONTROL FOR STRESS PERIOD    3   TIME STEP   85
    SAVE HEAD FOR ALL LAYERS
    SAVE DRAWDOWN FOR ALL LAYERS
    SAVE BUDGET
    PRINT HEAD FOR ALL LAYERS
    PRINT BUDGET
 UBDSV1 SAVING "         STORAGE" ON UNIT  53 AT TIME STEP 85, STRESS PERIOD   3
 UBDSV2 SAVING "   CONSTANT HEAD" ON UNIT  53 AT TIME STEP 85, STRESS PERIOD   3
 UBDSV1 SAVING "FLOW RIGHT FACE " ON UNIT  53 AT TIME STEP 85, STRESS PERIOD   3
 UBDSV1 SAVING "FLOW FRONT FACE " ON UNIT  53 AT TIME STEP 85, STRESS PERIOD   3
1
              HEAD IN LAYER   1 AT END OF TIME STEP  85 IN STRESS PERIOD    3
  ---------------------------------------------------------------------------

            1           2           3           4           5           6           7           8           9          10
 ........................................................................................................................
   1    9.994       9.414       8.772       8.025       7.152       6.136       4.927       3.492       1.838      1.8534E-02
   2    9.994       9.379       8.694       7.898       6.991       6.003       4.842       3.445       1.818      1.8330E-02
   3    9.993       9.313       8.538       7.614       6.593       5.709       4.670       3.358       1.782      1.7964E-02
   4    9.992       9.233       8.325       7.139       5.709       5.216       4.437       3.255       1.743      1.7568E-02
   5    9.992       9.187       8.165       6.583       3.468       4.640       4.264       3.197       1.724      1.7373E-02
   6    9.992       9.235       8.328       7.144       5.715       5.221       4.441       3.258       1.744      1.7581E-02
   7    9.993       9.318       8.548       7.628       6.608       5.723       4.681       3.365       1.785      1.8001E-02
   8    9.994       9.391       8.718       7.930       7.027       6.036       4.867       3.462       1.826      1.8412E-02
   9    9.994       9.439       8.821       8.095       7.230       6.207       4.982       3.527       1.854      1.8704E-02
  10    9.995       9.461       8.868       8.165       7.314       6.281       5.034       3.558       1.868      1.8848E-02

 HEAD WILL BE SAVED ON UNIT   51 AT END OF TIME STEP   85, STRESS PERIOD    3

 DRAWDOWN WILL BE SAVED ON UNIT   52 AT END OF TIME STEP   85, STRESS PERIOD    3
1
  VOLUMETRIC BUDGET FOR ENTIRE MODEL AT END OF TIME STEP   85, STRESS PERIOD   3
  ------------------------------------------------------------------------------

     CUMULATIVE VOLUMES      L**3       RATES FOR THIS TIME STEP      L**3/T
     ------------------                 ------------------------

           IN:                                      IN:
           ---                                      ---
             STORAGE =      424493.1562               STORAGE =        1015.5753
       CONSTANT HEAD =           0.0000         CONSTANT HEAD =           0.0000
               WELLS =           0.0000                 WELLS =           0.0000
     HEAD DEP BOUNDS =       22683.2969       HEAD DEP BOUNDS =         391.0084

            TOTAL IN =      447176.4375              TOTAL IN =        1406.5836

          OUT:                                     OUT:
          ----                                     ----
             STORAGE =           0.0000               STORAGE =           0.0000
       CONSTANT HEAD =           0.0000         CONSTANT HEAD =           0.0000
               WELLS =       42500.0000                 WELLS =         500.0000
     HEAD DEP BOUNDS =      404676.5625       HEAD DEP BOUNDS =         906.5800

           TOTAL OUT =      447176.5625             TOTAL OUT =        1406.5801

            IN - OUT =          -0.1250              IN - OUT =       3.5400E-03

 PERCENT DISCREPANCY =          -0.00     PERCENT DISCREPANCY =           0.00






         TIME SUMMARY AT END OF TIME STEP   85 IN STRESS PERIOD    3
                    SECONDS     MINUTES      HOURS       DAYS        YEARS
                    -----------------------------------------------------------
   TIME STEP LENGTH  86400.      1440.0      24.000     1.00000     2.73785E-03
 STRESS PERIOD TIME 7.34400E+06 1.22400E+05  2040.0      85.000     0.23272    
         TOTAL TIME 1.60704E+07 2.67840E+05  4464.0      186.00     0.50924    
1
 
 SOLVING FOR HEAD 

 OUTPUT CONTROL FOR STRESS PERIOD    3   TIME STEP   86
    SAVE HEAD FOR ALL LAYERS
    SAVE DRAWDOWN FOR ALL LAYERS
    SAVE BUDGET
    PRINT HEAD FOR ALL LAYERS
    PRINT BUDGET
 UBDSV1 SAVING "         STORAGE" ON UNIT  53 AT TIME STEP 86, STRESS PERIOD   3
 UBDSV2 SAVING "   CONSTANT HEAD" ON UNIT  53 AT TIME STEP 86, STRESS PERIOD   3
 UBDSV1 SAVING "FLOW RIGHT FACE " ON UNIT  53 AT TIME STEP 86, STRESS PERIOD   3
 UBDSV1 SAVING "FLOW FRONT FACE " ON UNIT  53 AT TIME STEP 86, STRESS PERIOD   3
1
              HEAD IN LAYER   1 AT END OF TIME STEP  86 IN STRESS PERIOD    3
  ---------------------------------------------------------------------------

            1           2           3           4           5           6           7           8           9          10
 ........................................................................................................................
   1    9.994       9.409       8.762       8.011       7.136       6.119       4.912       3.480       1.831      1.8467E-02
   2    9.994       9.374       8.684       7.883       6.974       5.986       4.826       3.433       1.811      1.8261E-02
   3    9.993       9.307       8.527       7.599       6.574       5.691       4.653       3.345       1.775      1.7892E-02
   4    9.992       9.227       8.313       7.122       5.690       5.197       4.419       3.242       1.735      1.7493E-02
   5    9.992       9.181       8.153       6.566       3.448       4.620       4.246       3.183       1.716      1.7297E-02
   6    9.992       9.229       8.317       7.127       5.696       5.202       4.424       3.244       1.737      1.7507E-02
   7    9.993       9.313       8.537       7.613       6.590       5.705       4.665       3.353       1.778      1.7931E-02
   8    9.994       9.386       8.708       7.916       7.011       6.020       4.852       3.450       1.819      1.8346E-02
   9    9.994       9.434       8.812       8.082       7.215       6.192       4.967       3.516       1.848      1.8641E-02
  10    9.995       9.457       8.859       8.153       7.300       6.266       5.020       3.547       1.862      1.8788E-02

 HEAD WILL BE SAVED ON UNIT   51 AT END OF TIME STEP   86, STRESS PERIOD    3

 DRAWDOWN WILL BE SAVED ON UNIT   52 AT END OF TIME STEP   86, STRESS PERIOD    3
1
  VOLUMETRIC BUDGET FOR ENTIRE MODEL AT END OF TIME STEP   86, STRESS PERIOD   3
  ------------------------------------------------------------------------------

     CUMULATIVE VOLUMES      L**3       RATES FOR THIS TIME STEP      L**3/T
     ------------------                 ------------------------

           IN:                                      IN:
           ---                                      ---
             STORAGE =      425502.0000               STORAGE =        1008.8462
       CONSTANT HEAD =           0.0000         CONSTANT HEAD =           0.0000
               WELLS =           0.0000                 WELLS =           0.0000
     HEAD DEP BOUNDS =       23077.5645       HEAD DEP BOUNDS =         394.2667

            TOTAL IN =      448579.5625              TOTAL IN =        1403.1129

          OUT:                                     OUT:
          ----                                     ----
             STORAGE =           0.0000               STORAGE =           0.0000
       CONSTANT HEAD =           0.0000         CONSTANT HEAD =           0.0000
               WELLS =       43000.0000                 WELLS =         500.0000
     HEAD DEP BOUNDS =      405579.6875       HEAD DEP BOUNDS =         903.1180

           TOTAL OUT =      448579.6875             TOTAL OUT =        1403.1179

            IN - OUT =          -0.1250              IN - OUT =      -5.0049E-03

 PERCENT DISCREPANCY =          -0.00     PERCENT DISCREPANCY =          -0.00






         TIME SUMMARY AT END OF TIME STEP   86 IN STRESS PERIOD    3
                    SECONDS     MINUTES      HOURS       DAYS        YEARS
                    -----------------------------------------------------------
   TIME STEP LENGTH  86400.      1440.0      24.000     1.00000     2.73785E-03
 STRESS PERIOD TIME 7.43040E+06 1.23840E+05  2064.0      86.000     0.23546    
         TOTAL TIME 1.61568E+07 2.69280E+05  4488.0      187.00     0.51198    
1
 
 SOLVING FOR HEAD 

 OUTPUT CONTROL FOR STRESS PERIOD    3   TIME STEP   87
    SAVE HEAD FOR ALL LAYERS
    SAVE DRAWDOWN FOR ALL LAYERS
    SAVE BUDGET
    PRINT HEAD FOR ALL LAYERS
    PRINT BUDGET
 UBDSV1 SAVING "         STORAGE" ON UNIT  53 AT TIME STEP 87, STRESS PERIOD   3
 UBDSV2 SAVING "   CONSTANT HEAD" ON UNIT  53 AT TIME STEP 87, STRESS PERIOD   3
 UBDSV1 SAVING "FLOW RIGHT FACE " ON UNIT  53 AT TIME STEP 87, STRESS PERIOD   3
 UBDSV1 SAVING "FLOW FRONT FACE " ON UNIT  53 AT TIME STEP 87, STRESS PERIOD   3
1
              HEAD IN LAYER   1 AT END OF TIME STEP  87 IN STRESS PERIOD    3
  ---------------------------------------------------------------------------

            1           2           3           4           5           6           7           8           9          10
 ........................................................................................................................
   1    9.994       9.403       8.752       7.997       7.119       6.102       4.897       3.468       1.825      1.8401E-02
   2    9.994       9.368       8.673       7.869       6.957       5.968       4.810       3.421       1.804      1.8192E-02
   3    9.993       9.301       8.516       7.583       6.556       5.672       4.636       3.333       1.768      1.7821E-02
   4    9.992       9.221       8.301       7.106       5.671       5.177       4.402       3.229       1.728      1.7419E-02
   5    9.992       9.174       8.142       6.549       3.428       4.600       4.229       3.170       1.709      1.7222E-02
   6    9.992       9.223       8.305       7.111       5.677       5.183       4.406       3.231       1.730      1.7433E-02
   7    9.993       9.307       8.527       7.598       6.573       5.687       4.648       3.340       1.772      1.7860E-02
   8    9.994       9.381       8.698       7.903       6.995       6.003       4.837       3.439       1.813      1.8280E-02
   9    9.994       9.429       8.803       8.069       7.200       6.176       4.953       3.505       1.842      1.8579E-02
  10    9.995       9.452       8.851       8.141       7.285       6.251       5.007       3.537       1.857      1.8728E-02

 HEAD WILL BE SAVED ON UNIT   51 AT END OF TIME STEP   87, STRESS PERIOD    3

 DRAWDOWN WILL BE SAVED ON UNIT   52 AT END OF TIME STEP   87, STRESS PERIOD    3
1
  VOLUMETRIC BUDGET FOR ENTIRE MODEL AT END OF TIME STEP   87, STRESS PERIOD   3
  ------------------------------------------------------------------------------

     CUMULATIVE VOLUMES      L**3       RATES FOR THIS TIME STEP      L**3/T
     ------------------                 ------------------------

           IN:                                      IN:
           ---                                      ---
             STORAGE =      426504.1562               STORAGE =        1002.1628
       CONSTANT HEAD =           0.0000         CONSTANT HEAD =           0.0000
               WELLS =           0.0000                 WELLS =           0.0000
     HEAD DEP BOUNDS =       23475.0859       HEAD DEP BOUNDS =         397.5208

            TOTAL IN =      449979.2500              TOTAL IN =        1399.6836

          OUT:                                     OUT:
          ----                                     ----
             STORAGE =           0.0000               STORAGE =           0.0000
       CONSTANT HEAD =           0.0000         CONSTANT HEAD =           0.0000
               WELLS =       43500.0000                 WELLS =         500.0000
     HEAD DEP BOUNDS =      406479.3750       HEAD DEP BOUNDS =         899.6785

           TOTAL OUT =      449979.3750             TOTAL OUT =        1399.6785

            IN - OUT =          -0.1250              IN - OUT =       5.1270E-03

 PERCENT DISCREPANCY =          -0.00     PERCENT DISCREPANCY =           0.00






         TIME SUMMARY AT END OF TIME STEP   87 IN STRESS PERIOD    3
                    SECONDS     MINUTES      HOURS       DAYS        YEARS
                    -----------------------------------------------------------
   TIME STEP LENGTH  86400.      1440.0      24.000     1.00000     2.73785E-03
 STRESS PERIOD TIME 7.51680E+06 1.25280E+05  2088.0      87.000     0.23819    
         TOTAL TIME 1.62432E+07 2.70720E+05  4512.0      188.00     0.51472    
1
 
 SOLVING FOR HEAD 

 OUTPUT CONTROL FOR STRESS PERIOD    3   TIME STEP   88
    SAVE HEAD FOR ALL LAYERS
    SAVE DRAWDOWN FOR ALL LAYERS
    SAVE BUDGET
    PRINT HEAD FOR ALL LAYERS
    PRINT BUDGET
 UBDSV1 SAVING "         STORAGE" ON UNIT  53 AT TIME STEP 88, STRESS PERIOD   3
 UBDSV2 SAVING "   CONSTANT HEAD" ON UNIT  53 AT TIME STEP 88, STRESS PERIOD   3
 UBDSV1 SAVING "FLOW RIGHT FACE " ON UNIT  53 AT TIME STEP 88, STRESS PERIOD   3
 UBDSV1 SAVING "FLOW FRONT FACE " ON UNIT  53 AT TIME STEP 88, STRESS PERIOD   3
1
              HEAD IN LAYER   1 AT END OF TIME STEP  88 IN STRESS PERIOD    3
  ---------------------------------------------------------------------------

            1           2           3           4           5           6           7           8           9          10
 ........................................................................................................................
   1    9.994       9.398       8.742       7.983       7.103       6.085       4.881       3.457       1.818      1.8335E-02
   2    9.994       9.363       8.663       7.854       6.940       5.951       4.794       3.409       1.798      1.8124E-02
   3    9.993       9.296       8.505       7.568       6.539       5.654       4.620       3.320       1.761      1.7749E-02
   4    9.992       9.215       8.290       7.090       5.652       5.158       4.385       3.215       1.721      1.7345E-02
   5    9.992       9.168       8.130       6.533       3.408       4.580       4.211       3.157       1.702      1.7148E-02
   6    9.992       9.217       8.294       7.096       5.658       5.164       4.389       3.219       1.723      1.7360E-02
   7    9.993       9.301       8.516       7.583       6.555       5.670       4.632       3.328       1.765      1.7791E-02
   8    9.994       9.376       8.688       7.889       6.979       5.987       4.822       3.427       1.806      1.8215E-02
   9    9.994       9.424       8.794       8.057       7.186       6.161       4.939       3.494       1.836      1.8517E-02
  10    9.995       9.448       8.842       8.129       7.271       6.237       4.993       3.526       1.851      1.8668E-02

 HEAD WILL BE SAVED ON UNIT   51 AT END OF TIME STEP   88, STRESS PERIOD    3

 DRAWDOWN WILL BE SAVED ON UNIT   52 AT END OF TIME STEP   88, STRESS PERIOD    3
1
  VOLUMETRIC BUDGET FOR ENTIRE MODEL AT END OF TIME STEP   88, STRESS PERIOD   3
  ------------------------------------------------------------------------------

     CUMULATIVE VOLUMES      L**3       RATES FOR THIS TIME STEP      L**3/T
     ------------------                 ------------------------

           IN:                                      IN:
           ---                                      ---
             STORAGE =      427499.6875               STORAGE =         995.5205
       CONSTANT HEAD =           0.0000         CONSTANT HEAD =           0.0000
               WELLS =           0.0000                 WELLS =           0.0000
     HEAD DEP BOUNDS =       23875.8242       HEAD DEP BOUNDS =         400.7377

            TOTAL IN =      451375.5000              TOTAL IN =        1396.2582

          OUT:                                     OUT:
          ----                                     ----
             STORAGE =           0.0000               STORAGE =           0.0000
       CONSTANT HEAD =           0.0000         CONSTANT HEAD =           0.0000
               WELLS =       44000.0000                 WELLS =         500.0000
     HEAD DEP BOUNDS =      407375.6250       HEAD DEP BOUNDS =         896.2629

           TOTAL OUT =      451375.6250             TOTAL OUT =        1396.2629

            IN - OUT =          -0.1250              IN - OUT =      -4.7607E-03

 PERCENT DISCREPANCY =          -0.00     PERCENT DISCREPANCY =          -0.00






         TIME SUMMARY AT END OF TIME STEP   88 IN STRESS PERIOD    3
                    SECONDS     MINUTES      HOURS       DAYS        YEARS
                    -----------------------------------------------------------
   TIME STEP LENGTH  86400.      1440.0      24.000     1.00000     2.73785E-03
 STRESS PERIOD TIME 7.60320E+06 1.26720E+05  2112.0      88.000     0.24093    
         TOTAL TIME 1.63296E+07 2.72160E+05  4536.0      189.00     0.51745    
1
 
 SOLVING FOR HEAD 

 OUTPUT CONTROL FOR STRESS PERIOD    3   TIME STEP   89
    SAVE HEAD FOR ALL LAYERS
    SAVE DRAWDOWN FOR ALL LAYERS
    SAVE BUDGET
    PRINT HEAD FOR ALL LAYERS
    PRINT BUDGET
 UBDSV1 SAVING "         STORAGE" ON UNIT  53 AT TIME STEP 89, STRESS PERIOD   3
 UBDSV2 SAVING "   CONSTANT HEAD" ON UNIT  53 AT TIME STEP 89, STRESS PERIOD   3
 UBDSV1 SAVING "FLOW RIGHT FACE " ON UNIT  53 AT TIME STEP 89, STRESS PERIOD   3
 UBDSV1 SAVING "FLOW FRONT FACE " ON UNIT  53 AT TIME STEP 89, STRESS PERIOD   3
1
              HEAD IN LAYER   1 AT END OF TIME STEP  89 IN STRESS PERIOD    3
  ---------------------------------------------------------------------------

            1           2           3           4           5           6           7           8           9          10
 ........................................................................................................................
   1    9.994       9.393       8.731       7.970       7.087       6.069       4.866       3.445       1.812      1.8269E-02
   2    9.994       9.357       8.652       7.840       6.923       5.934       4.779       3.397       1.791      1.8056E-02
   3    9.993       9.290       8.494       7.553       6.521       5.636       4.604       3.307       1.754      1.7679E-02
   4    9.992       9.209       8.278       7.074       5.633       5.139       4.368       3.203       1.714      1.7272E-02
   5    9.992       9.162       8.118       6.516       3.388       4.561       4.194       3.143       1.694      1.7074E-02
   6    9.992       9.211       8.282       7.080       5.640       5.145       4.373       3.206       1.715      1.7288E-02
   7    9.993       9.296       8.505       7.569       6.538       5.652       4.616       3.316       1.758      1.7722E-02
   8    9.994       9.370       8.678       7.875       6.963       5.970       4.807       3.416       1.800      1.8150E-02
   9    9.994       9.420       8.785       8.044       7.171       6.146       4.926       3.483       1.830      1.8456E-02
  10    9.995       9.443       8.833       8.117       7.257       6.222       4.980       3.516       1.845      1.8609E-02

 HEAD WILL BE SAVED ON UNIT   51 AT END OF TIME STEP   89, STRESS PERIOD    3

 DRAWDOWN WILL BE SAVED ON UNIT   52 AT END OF TIME STEP   89, STRESS PERIOD    3
1
  VOLUMETRIC BUDGET FOR ENTIRE MODEL AT END OF TIME STEP   89, STRESS PERIOD   3
  ------------------------------------------------------------------------------

     CUMULATIVE VOLUMES      L**3       RATES FOR THIS TIME STEP      L**3/T
     ------------------                 ------------------------

           IN:                                      IN:
           ---                                      ---
             STORAGE =      428488.6250               STORAGE =         988.9240
       CONSTANT HEAD =           0.0000         CONSTANT HEAD =           0.0000
               WELLS =           0.0000                 WELLS =           0.0000
     HEAD DEP BOUNDS =       24279.7617       HEAD DEP BOUNDS =         403.9372

            TOTAL IN =      452768.3750              TOTAL IN =        1392.8612

          OUT:                                     OUT:
          ----                                     ----
             STORAGE =           0.0000               STORAGE =           0.0000
       CONSTANT HEAD =           0.0000         CONSTANT HEAD =           0.0000
               WELLS =       44500.0000                 WELLS =         500.0000
     HEAD DEP BOUNDS =      408268.5000       HEAD DEP BOUNDS =         892.8689

           TOTAL OUT =      452768.5000             TOTAL OUT =        1392.8689

            IN - OUT =          -0.1250              IN - OUT =      -7.6904E-03

 PERCENT DISCREPANCY =          -0.00     PERCENT DISCREPANCY =          -0.00






         TIME SUMMARY AT END OF TIME STEP   89 IN STRESS PERIOD    3
                    SECONDS     MINUTES      HOURS       DAYS        YEARS
                    -----------------------------------------------------------
   TIME STEP LENGTH  86400.      1440.0      24.000     1.00000     2.73785E-03
 STRESS PERIOD TIME 7.68960E+06 1.28160E+05  2136.0      89.000     0.24367    
         TOTAL TIME 1.64160E+07 2.73600E+05  4560.0      190.00     0.52019    
1
 
 SOLVING FOR HEAD 

 OUTPUT CONTROL FOR STRESS PERIOD    3   TIME STEP   90
    SAVE HEAD FOR ALL LAYERS
    SAVE DRAWDOWN FOR ALL LAYERS
    SAVE BUDGET
    PRINT HEAD FOR ALL LAYERS
    PRINT BUDGET
 UBDSV1 SAVING "         STORAGE" ON UNIT  53 AT TIME STEP 90, STRESS PERIOD   3
 UBDSV2 SAVING "   CONSTANT HEAD" ON UNIT  53 AT TIME STEP 90, STRESS PERIOD   3
 UBDSV1 SAVING "FLOW RIGHT FACE " ON UNIT  53 AT TIME STEP 90, STRESS PERIOD   3
 UBDSV1 SAVING "FLOW FRONT FACE " ON UNIT  53 AT TIME STEP 90, STRESS PERIOD   3
1
              HEAD IN LAYER   1 AT END OF TIME STEP  90 IN STRESS PERIOD    3
  ---------------------------------------------------------------------------

            1           2           3           4           5           6           7           8           9          10
 ........................................................................................................................
   1    9.994       9.387       8.722       7.956       7.071       6.052       4.851       3.434       1.805      1.8203E-02
   2    9.994       9.352       8.642       7.826       6.907       5.917       4.763       3.385       1.784      1.7989E-02
   3    9.993       9.284       8.483       7.538       6.503       5.618       4.588       3.295       1.747      1.7609E-02
   4    9.992       9.203       8.267       7.058       5.615       5.120       4.351       3.190       1.707      1.7199E-02
   5    9.992       9.156       8.106       6.500       3.368       4.541       4.177       3.130       1.687      1.7000E-02
   6    9.992       9.205       8.271       7.064       5.621       5.126       4.356       3.193       1.708      1.7216E-02
   7    9.993       9.290       8.495       7.554       6.521       5.634       4.601       3.304       1.751      1.7653E-02
   8    9.994       9.365       8.668       7.862       6.947       5.954       4.793       3.404       1.794      1.8085E-02
   9    9.994       9.415       8.775       8.031       7.156       6.131       4.912       3.473       1.824      1.8395E-02
  10    9.994       9.439       8.825       8.105       7.243       6.207       4.967       3.506       1.839      1.8550E-02

 HEAD WILL BE SAVED ON UNIT   51 AT END OF TIME STEP   90, STRESS PERIOD    3

 DRAWDOWN WILL BE SAVED ON UNIT   52 AT END OF TIME STEP   90, STRESS PERIOD    3
1
  VOLUMETRIC BUDGET FOR ENTIRE MODEL AT END OF TIME STEP   90, STRESS PERIOD   3
  ------------------------------------------------------------------------------

     CUMULATIVE VOLUMES      L**3       RATES FOR THIS TIME STEP      L**3/T
     ------------------                 ------------------------

           IN:                                      IN:
           ---                                      ---
             STORAGE =      429471.0000               STORAGE =         982.3679
       CONSTANT HEAD =           0.0000         CONSTANT HEAD =           0.0000
               WELLS =           0.0000                 WELLS =           0.0000
     HEAD DEP BOUNDS =       24686.8945       HEAD DEP BOUNDS =         407.1328

            TOTAL IN =      454157.9062              TOTAL IN =        1389.5007

          OUT:                                     OUT:
          ----                                     ----
             STORAGE =           0.0000               STORAGE =           0.0000
       CONSTANT HEAD =           0.0000         CONSTANT HEAD =           0.0000
               WELLS =       45000.0000                 WELLS =         500.0000
     HEAD DEP BOUNDS =      409158.0000       HEAD DEP BOUNDS =         889.4963

           TOTAL OUT =      454158.0000             TOTAL OUT =        1389.4963

            IN - OUT =      -9.3750E-02              IN - OUT =       4.3945E-03

 PERCENT DISCREPANCY =          -0.00     PERCENT DISCREPANCY =           0.00






         TIME SUMMARY AT END OF TIME STEP   90 IN STRESS PERIOD    3
                    SECONDS     MINUTES      HOURS       DAYS        YEARS
                    -----------------------------------------------------------
   TIME STEP LENGTH  86400.      1440.0      24.000     1.00000     2.73785E-03
 STRESS PERIOD TIME 7.77600E+06 1.29600E+05  2160.0      90.000     0.24641    
         TOTAL TIME 1.65024E+07 2.75040E+05  4584.0      191.00     0.52293    
1
 
 SOLVING FOR HEAD 

 OUTPUT CONTROL FOR STRESS PERIOD    3   TIME STEP   91
    SAVE HEAD FOR ALL LAYERS
    SAVE DRAWDOWN FOR ALL LAYERS
    SAVE BUDGET
    PRINT HEAD FOR ALL LAYERS
    PRINT BUDGET
 UBDSV1 SAVING "         STORAGE" ON UNIT  53 AT TIME STEP 91, STRESS PERIOD   3
 UBDSV2 SAVING "   CONSTANT HEAD" ON UNIT  53 AT TIME STEP 91, STRESS PERIOD   3
 UBDSV1 SAVING "FLOW RIGHT FACE " ON UNIT  53 AT TIME STEP 91, STRESS PERIOD   3
 UBDSV1 SAVING "FLOW FRONT FACE " ON UNIT  53 AT TIME STEP 91, STRESS PERIOD   3
1
              HEAD IN LAYER   1 AT END OF TIME STEP  91 IN STRESS PERIOD    3
  ---------------------------------------------------------------------------

            1           2           3           4           5           6           7           8           9          10
 ........................................................................................................................
   1    9.994       9.382       8.712       7.942       7.055       6.036       4.836       3.422       1.799      1.8138E-02
   2    9.994       9.346       8.632       7.812       6.890       5.900       4.748       3.373       1.778      1.7922E-02
   3    9.993       9.278       8.472       7.523       6.486       5.600       4.571       3.283       1.740      1.7539E-02
   4    9.992       9.197       8.255       7.042       5.596       5.101       4.334       3.177       1.700      1.7127E-02
   5    9.992       9.150       8.095       6.484       3.349       4.522       4.160       3.118       1.680      1.6928E-02
   6    9.992       9.200       8.260       7.049       5.603       5.108       4.339       3.180       1.701      1.7144E-02
   7    9.993       9.285       8.484       7.539       6.504       5.617       4.585       3.292       1.745      1.7585E-02
   8    9.994       9.360       8.659       7.849       6.931       5.938       4.778       3.393       1.788      1.8021E-02
   9    9.994       9.410       8.766       8.019       7.142       6.116       4.898       3.462       1.818      1.8335E-02
  10    9.994       9.434       8.816       8.093       7.229       6.193       4.953       3.495       1.834      1.8492E-02

 HEAD WILL BE SAVED ON UNIT   51 AT END OF TIME STEP   91, STRESS PERIOD    3

 DRAWDOWN WILL BE SAVED ON UNIT   52 AT END OF TIME STEP   91, STRESS PERIOD    3
1
  VOLUMETRIC BUDGET FOR ENTIRE MODEL AT END OF TIME STEP   91, STRESS PERIOD   3
  ------------------------------------------------------------------------------

     CUMULATIVE VOLUMES      L**3       RATES FOR THIS TIME STEP      L**3/T
     ------------------                 ------------------------

           IN:                                      IN:
           ---                                      ---
             STORAGE =      430446.8438               STORAGE =         975.8461
       CONSTANT HEAD =           0.0000         CONSTANT HEAD =           0.0000
               WELLS =           0.0000                 WELLS =           0.0000
     HEAD DEP BOUNDS =       25097.1934       HEAD DEP BOUNDS =         410.2980

            TOTAL IN =      455544.0312              TOTAL IN =        1386.1442

          OUT:                                     OUT:
          ----                                     ----
             STORAGE =           0.0000               STORAGE =           0.0000
       CONSTANT HEAD =           0.0000         CONSTANT HEAD =           0.0000
               WELLS =       45500.0000                 WELLS =         500.0000
     HEAD DEP BOUNDS =      410044.1562       HEAD DEP BOUNDS =         886.1475

           TOTAL OUT =      455544.1562             TOTAL OUT =        1386.1475

            IN - OUT =          -0.1250              IN - OUT =      -3.2959E-03

 PERCENT DISCREPANCY =          -0.00     PERCENT DISCREPANCY =          -0.00






         TIME SUMMARY AT END OF TIME STEP   91 IN STRESS PERIOD    3
                    SECONDS     MINUTES      HOURS       DAYS        YEARS
                    -----------------------------------------------------------
   TIME STEP LENGTH  86400.      1440.0      24.000     1.00000     2.73785E-03
 STRESS PERIOD TIME 7.86240E+06 1.31040E+05  2184.0      91.000     0.24914    
         TOTAL TIME 1.65888E+07 2.76480E+05  4608.0      192.00     0.52567    
1
 
 SOLVING FOR HEAD 

 OUTPUT CONTROL FOR STRESS PERIOD    3   TIME STEP   92
    SAVE HEAD FOR ALL LAYERS
    SAVE DRAWDOWN FOR ALL LAYERS
    SAVE BUDGET
    PRINT HEAD FOR ALL LAYERS
    PRINT BUDGET
 UBDSV1 SAVING "         STORAGE" ON UNIT  53 AT TIME STEP 92, STRESS PERIOD   3
 UBDSV2 SAVING "   CONSTANT HEAD" ON UNIT  53 AT TIME STEP 92, STRESS PERIOD   3
 UBDSV1 SAVING "FLOW RIGHT FACE " ON UNIT  53 AT TIME STEP 92, STRESS PERIOD   3
 UBDSV1 SAVING "FLOW FRONT FACE " ON UNIT  53 AT TIME STEP 92, STRESS PERIOD   3
1
              HEAD IN LAYER   1 AT END OF TIME STEP  92 IN STRESS PERIOD    3
  ---------------------------------------------------------------------------

            1           2           3           4           5           6           7           8           9          10
 ........................................................................................................................
   1    9.994       9.377       8.702       7.929       7.039       6.019       4.822       3.411       1.793      1.8073E-02
   2    9.994       9.341       8.622       7.798       6.874       5.883       4.733       3.362       1.771      1.7855E-02
   3    9.993       9.273       8.461       7.508       6.469       5.582       4.555       3.271       1.734      1.7470E-02
   4    9.992       9.191       8.244       7.027       5.578       5.083       4.318       3.164       1.693      1.7056E-02
   5    9.992       9.144       8.084       6.468       3.329       4.503       4.143       3.105       1.673      1.6855E-02
   6    9.992       9.194       8.249       7.033       5.585       5.089       4.323       3.168       1.695      1.7074E-02
   7    9.993       9.279       8.474       7.525       6.487       5.600       4.569       3.280       1.738      1.7517E-02
   8    9.994       9.355       8.649       7.835       6.916       5.922       4.763       3.382       1.781      1.7957E-02
   9    9.994       9.406       8.757       8.007       7.127       6.101       4.884       3.451       1.812      1.8274E-02
  10    9.994       9.430       8.807       8.082       7.215       6.179       4.940       3.485       1.828      1.8433E-02

 HEAD WILL BE SAVED ON UNIT   51 AT END OF TIME STEP   92, STRESS PERIOD    3

 DRAWDOWN WILL BE SAVED ON UNIT   52 AT END OF TIME STEP   92, STRESS PERIOD    3
1
  VOLUMETRIC BUDGET FOR ENTIRE MODEL AT END OF TIME STEP   92, STRESS PERIOD   3
  ------------------------------------------------------------------------------

     CUMULATIVE VOLUMES      L**3       RATES FOR THIS TIME STEP      L**3/T
     ------------------                 ------------------------

           IN:                                      IN:
           ---                                      ---
             STORAGE =      431416.2188               STORAGE =         969.3823
       CONSTANT HEAD =           0.0000         CONSTANT HEAD =           0.0000
               WELLS =           0.0000                 WELLS =           0.0000
     HEAD DEP BOUNDS =       25510.6328       HEAD DEP BOUNDS =         413.4393

            TOTAL IN =      456926.8438              TOTAL IN =        1382.8215

          OUT:                                     OUT:
          ----                                     ----
             STORAGE =           0.0000               STORAGE =           0.0000
       CONSTANT HEAD =           0.0000         CONSTANT HEAD =           0.0000
               WELLS =       46000.0000                 WELLS =         500.0000
     HEAD DEP BOUNDS =      410926.9688       HEAD DEP BOUNDS =         882.8232

           TOTAL OUT =      456926.9688             TOTAL OUT =        1382.8232

            IN - OUT =          -0.1250              IN - OUT =      -1.7090E-03

 PERCENT DISCREPANCY =          -0.00     PERCENT DISCREPANCY =          -0.00






         TIME SUMMARY AT END OF TIME STEP   92 IN STRESS PERIOD    3
                    SECONDS     MINUTES      HOURS       DAYS        YEARS
                    -----------------------------------------------------------
   TIME STEP LENGTH  86400.      1440.0      24.000     1.00000     2.73785E-03
 STRESS PERIOD TIME 7.94880E+06 1.32480E+05  2208.0      92.000     0.25188    
         TOTAL TIME 1.66752E+07 2.77920E+05  4632.0      193.00     0.52841    
1
 
 SOLVING FOR HEAD 

 OUTPUT CONTROL FOR STRESS PERIOD    3   TIME STEP   93
    SAVE HEAD FOR ALL LAYERS
    SAVE DRAWDOWN FOR ALL LAYERS
    SAVE BUDGET
    PRINT HEAD FOR ALL LAYERS
    PRINT BUDGET
 UBDSV1 SAVING "         STORAGE" ON UNIT  53 AT TIME STEP 93, STRESS PERIOD   3
 UBDSV2 SAVING "   CONSTANT HEAD" ON UNIT  53 AT TIME STEP 93, STRESS PERIOD   3
 UBDSV1 SAVING "FLOW RIGHT FACE " ON UNIT  53 AT TIME STEP 93, STRESS PERIOD   3
 UBDSV1 SAVING "FLOW FRONT FACE " ON UNIT  53 AT TIME STEP 93, STRESS PERIOD   3
1
              HEAD IN LAYER   1 AT END OF TIME STEP  93 IN STRESS PERIOD    3
  ---------------------------------------------------------------------------

            1           2           3           4           5           6           7           8           9          10
 ........................................................................................................................
   1    9.994       9.372       8.692       7.915       7.023       6.003       4.807       3.400       1.786      1.8009E-02
   2    9.993       9.336       8.611       7.784       6.857       5.866       4.717       3.350       1.765      1.7789E-02
   3    9.993       9.267       8.451       7.493       6.451       5.565       4.540       3.258       1.727      1.7401E-02
   4    9.992       9.186       8.233       7.011       5.560       5.064       4.301       3.152       1.686      1.6985E-02
   5    9.992       9.138       8.072       6.452       3.310       4.484       4.126       3.092       1.666      1.6784E-02
   6    9.992       9.188       8.238       7.018       5.567       5.071       4.306       3.155       1.688      1.7003E-02
   7    9.993       9.274       8.463       7.511       6.471       5.583       4.554       3.268       1.732      1.7450E-02
   8    9.994       9.350       8.639       7.822       6.900       5.906       4.749       3.371       1.775      1.7894E-02
   9    9.994       9.401       8.749       7.994       7.113       6.086       4.871       3.441       1.807      1.8214E-02
  10    9.994       9.425       8.799       8.070       7.202       6.164       4.927       3.475       1.822      1.8375E-02

 HEAD WILL BE SAVED ON UNIT   51 AT END OF TIME STEP   93, STRESS PERIOD    3

 DRAWDOWN WILL BE SAVED ON UNIT   52 AT END OF TIME STEP   93, STRESS PERIOD    3
1
  VOLUMETRIC BUDGET FOR ENTIRE MODEL AT END OF TIME STEP   93, STRESS PERIOD   3
  ------------------------------------------------------------------------------

     CUMULATIVE VOLUMES      L**3       RATES FOR THIS TIME STEP      L**3/T
     ------------------                 ------------------------

           IN:                                      IN:
           ---                                      ---
             STORAGE =      432379.1875               STORAGE =         962.9540
       CONSTANT HEAD =           0.0000         CONSTANT HEAD =           0.0000
               WELLS =           0.0000                 WELLS =           0.0000
     HEAD DEP BOUNDS =       25927.1953       HEAD DEP BOUNDS =         416.5635

            TOTAL IN =      458306.3750              TOTAL IN =        1379.5176

          OUT:                                     OUT:
          ----                                     ----
             STORAGE =           0.0000               STORAGE =           0.0000
       CONSTANT HEAD =           0.0000         CONSTANT HEAD =           0.0000
               WELLS =       46500.0000                 WELLS =         500.0000
     HEAD DEP BOUNDS =      411806.5000       HEAD DEP BOUNDS =         879.5199

           TOTAL OUT =      458306.5000             TOTAL OUT =        1379.5199

            IN - OUT =          -0.1250              IN - OUT =      -2.3193E-03

 PERCENT DISCREPANCY =          -0.00     PERCENT DISCREPANCY =          -0.00






         TIME SUMMARY AT END OF TIME STEP   93 IN STRESS PERIOD    3
                    SECONDS     MINUTES      HOURS       DAYS        YEARS
                    -----------------------------------------------------------
   TIME STEP LENGTH  86400.      1440.0      24.000     1.00000     2.73785E-03
 STRESS PERIOD TIME 8.03520E+06 1.33920E+05  2232.0      93.000     0.25462    
         TOTAL TIME 1.67616E+07 2.79360E+05  4656.0      194.00     0.53114    
1
 
 SOLVING FOR HEAD 

 OUTPUT CONTROL FOR STRESS PERIOD    3   TIME STEP   94
    SAVE HEAD FOR ALL LAYERS
    SAVE DRAWDOWN FOR ALL LAYERS
    SAVE BUDGET
    PRINT HEAD FOR ALL LAYERS
    PRINT BUDGET
 UBDSV1 SAVING "         STORAGE" ON UNIT  53 AT TIME STEP 94, STRESS PERIOD   3
 UBDSV2 SAVING "   CONSTANT HEAD" ON UNIT  53 AT TIME STEP 94, STRESS PERIOD   3
 UBDSV1 SAVING "FLOW RIGHT FACE " ON UNIT  53 AT TIME STEP 94, STRESS PERIOD   3
 UBDSV1 SAVING "FLOW FRONT FACE " ON UNIT  53 AT TIME STEP 94, STRESS PERIOD   3
1
              HEAD IN LAYER   1 AT END OF TIME STEP  94 IN STRESS PERIOD    3
  ---------------------------------------------------------------------------

            1           2           3           4           5           6           7           8           9          10
 ........................................................................................................................
   1    9.994       9.367       8.682       7.901       7.007       5.987       4.792       3.388       1.780      1.7944E-02
   2    9.993       9.330       8.601       7.770       6.841       5.849       4.702       3.338       1.758      1.7723E-02
   3    9.993       9.262       8.440       7.479       6.434       5.547       4.524       3.246       1.720      1.7333E-02
   4    9.992       9.180       8.222       6.996       5.542       5.046       4.285       3.139       1.679      1.6914E-02
   5    9.991       9.132       8.061       6.437       3.291       4.466       4.110       3.079       1.659      1.6713E-02
   6    9.992       9.182       8.227       7.003       5.549       5.053       4.290       3.143       1.681      1.6933E-02
   7    9.993       9.269       8.453       7.497       6.454       5.565       4.539       3.256       1.725      1.7383E-02
   8    9.994       9.345       8.630       7.809       6.885       5.890       4.735       3.360       1.769      1.7831E-02
   9    9.994       9.396       8.740       7.982       7.098       6.071       4.857       3.431       1.801      1.8155E-02
  10    9.994       9.421       8.790       8.058       7.188       6.150       4.914       3.465       1.817      1.8318E-02

 HEAD WILL BE SAVED ON UNIT   51 AT END OF TIME STEP   94, STRESS PERIOD    3

 DRAWDOWN WILL BE SAVED ON UNIT   52 AT END OF TIME STEP   94, STRESS PERIOD    3
1
  VOLUMETRIC BUDGET FOR ENTIRE MODEL AT END OF TIME STEP   94, STRESS PERIOD   3
  ------------------------------------------------------------------------------

     CUMULATIVE VOLUMES      L**3       RATES FOR THIS TIME STEP      L**3/T
     ------------------                 ------------------------

           IN:                                      IN:
           ---                                      ---
             STORAGE =      433335.7500               STORAGE =         956.5671
       CONSTANT HEAD =           0.0000         CONSTANT HEAD =           0.0000
               WELLS =           0.0000                 WELLS =           0.0000
     HEAD DEP BOUNDS =       26346.8652       HEAD DEP BOUNDS =         419.6705

            TOTAL IN =      459682.6250              TOTAL IN =        1376.2377

          OUT:                                     OUT:
          ----                                     ----
             STORAGE =           0.0000               STORAGE =           0.0000
       CONSTANT HEAD =           0.0000         CONSTANT HEAD =           0.0000
               WELLS =       47000.0000                 WELLS =         500.0000
     HEAD DEP BOUNDS =      412682.7500       HEAD DEP BOUNDS =         876.2369

           TOTAL OUT =      459682.7500             TOTAL OUT =        1376.2368

            IN - OUT =          -0.1250              IN - OUT =       8.5449E-04

 PERCENT DISCREPANCY =          -0.00     PERCENT DISCREPANCY =           0.00






         TIME SUMMARY AT END OF TIME STEP   94 IN STRESS PERIOD    3
                    SECONDS     MINUTES      HOURS       DAYS        YEARS
                    -----------------------------------------------------------
   TIME STEP LENGTH  86400.      1440.0      24.000     1.00000     2.73785E-03
 STRESS PERIOD TIME 8.12160E+06 1.35360E+05  2256.0      94.000     0.25736    
         TOTAL TIME 1.68480E+07 2.80800E+05  4680.0      195.00     0.53388    
1
 
 SOLVING FOR HEAD 

 OUTPUT CONTROL FOR STRESS PERIOD    3   TIME STEP   95
    SAVE HEAD FOR ALL LAYERS
    SAVE DRAWDOWN FOR ALL LAYERS
    SAVE BUDGET
    PRINT HEAD FOR ALL LAYERS
    PRINT BUDGET
 UBDSV1 SAVING "         STORAGE" ON UNIT  53 AT TIME STEP 95, STRESS PERIOD   3
 UBDSV2 SAVING "   CONSTANT HEAD" ON UNIT  53 AT TIME STEP 95, STRESS PERIOD   3
 UBDSV1 SAVING "FLOW RIGHT FACE " ON UNIT  53 AT TIME STEP 95, STRESS PERIOD   3
 UBDSV1 SAVING "FLOW FRONT FACE " ON UNIT  53 AT TIME STEP 95, STRESS PERIOD   3
1
              HEAD IN LAYER   1 AT END OF TIME STEP  95 IN STRESS PERIOD    3
  ---------------------------------------------------------------------------

            1           2           3           4           5           6           7           8           9          10
 ........................................................................................................................
   1    9.994       9.362       8.672       7.888       6.992       5.971       4.778       3.377       1.774      1.7881E-02
   2    9.993       9.325       8.591       7.756       6.825       5.833       4.687       3.327       1.752      1.7658E-02
   3    9.993       9.256       8.429       7.464       6.417       5.530       4.508       3.234       1.714      1.7265E-02
   4    9.992       9.174       8.211       6.981       5.524       5.028       4.268       3.127       1.672      1.6844E-02
   5    9.991       9.127       8.050       6.421       3.272       4.447       4.093       3.067       1.652      1.6642E-02
   6    9.992       9.177       8.216       6.988       5.532       5.035       4.274       3.131       1.674      1.6864E-02
   7    9.993       9.263       8.443       7.482       6.437       5.549       4.523       3.245       1.719      1.7317E-02
   8    9.994       9.340       8.620       7.796       6.870       5.875       4.720       3.349       1.763      1.7769E-02
   9    9.994       9.392       8.731       7.970       7.084       6.056       4.844       3.420       1.795      1.8096E-02
  10    9.994       9.416       8.782       8.046       7.174       6.136       4.901       3.455       1.811      1.8260E-02

 HEAD WILL BE SAVED ON UNIT   51 AT END OF TIME STEP   95, STRESS PERIOD    3

 DRAWDOWN WILL BE SAVED ON UNIT   52 AT END OF TIME STEP   95, STRESS PERIOD    3
1
  VOLUMETRIC BUDGET FOR ENTIRE MODEL AT END OF TIME STEP   95, STRESS PERIOD   3
  ------------------------------------------------------------------------------

     CUMULATIVE VOLUMES      L**3       RATES FOR THIS TIME STEP      L**3/T
     ------------------                 ------------------------

           IN:                                      IN:
           ---                                      ---
             STORAGE =      434285.9688               STORAGE =         950.2256
       CONSTANT HEAD =           0.0000         CONSTANT HEAD =           0.0000
               WELLS =           0.0000                 WELLS =           0.0000
     HEAD DEP BOUNDS =       26769.6191       HEAD DEP BOUNDS =         422.7540

            TOTAL IN =      461055.5938              TOTAL IN =        1372.9796

          OUT:                                     OUT:
          ----                                     ----
             STORAGE =           0.0000               STORAGE =           0.0000
       CONSTANT HEAD =           0.0000         CONSTANT HEAD =           0.0000
               WELLS =       47500.0000                 WELLS =         500.0000
     HEAD DEP BOUNDS =      413555.7188       HEAD DEP BOUNDS =         872.9796

           TOTAL OUT =      461055.7188             TOTAL OUT =        1372.9795

            IN - OUT =          -0.1250              IN - OUT =       1.2207E-04

 PERCENT DISCREPANCY =          -0.00     PERCENT DISCREPANCY =           0.00






         TIME SUMMARY AT END OF TIME STEP   95 IN STRESS PERIOD    3
                    SECONDS     MINUTES      HOURS       DAYS        YEARS
                    -----------------------------------------------------------
   TIME STEP LENGTH  86400.      1440.0      24.000     1.00000     2.73785E-03
 STRESS PERIOD TIME 8.20800E+06 1.36800E+05  2280.0      95.000     0.26010    
         TOTAL TIME 1.69344E+07 2.82240E+05  4704.0      196.00     0.53662    
1
 
 SOLVING FOR HEAD 

 OUTPUT CONTROL FOR STRESS PERIOD    3   TIME STEP   96
    SAVE HEAD FOR ALL LAYERS
    SAVE DRAWDOWN FOR ALL LAYERS
    SAVE BUDGET
    PRINT HEAD FOR ALL LAYERS
    PRINT BUDGET
 UBDSV1 SAVING "         STORAGE" ON UNIT  53 AT TIME STEP 96, STRESS PERIOD   3
 UBDSV2 SAVING "   CONSTANT HEAD" ON UNIT  53 AT TIME STEP 96, STRESS PERIOD   3
 UBDSV1 SAVING "FLOW RIGHT FACE " ON UNIT  53 AT TIME STEP 96, STRESS PERIOD   3
 UBDSV1 SAVING "FLOW FRONT FACE " ON UNIT  53 AT TIME STEP 96, STRESS PERIOD   3
1
              HEAD IN LAYER   1 AT END OF TIME STEP  96 IN STRESS PERIOD    3
  ---------------------------------------------------------------------------

            1           2           3           4           5           6           7           8           9          10
 ........................................................................................................................
   1    9.994       9.356       8.662       7.875       6.976       5.955       4.763       3.366       1.768      1.7817E-02
   2    9.993       9.320       8.581       7.742       6.809       5.816       4.672       3.315       1.746      1.7593E-02
   3    9.993       9.251       8.419       7.450       6.400       5.512       4.493       3.223       1.707      1.7198E-02
   4    9.992       9.168       8.200       6.966       5.506       5.010       4.252       3.115       1.665      1.6775E-02
   5    9.991       9.121       8.039       6.406       3.254       4.429       4.077       3.054       1.645      1.6572E-02
   6    9.992       9.171       8.206       6.973       5.514       5.017       4.258       3.119       1.667      1.6796E-02
   7    9.993       9.258       8.433       7.468       6.421       5.532       4.508       3.233       1.712      1.7251E-02
   8    9.993       9.335       8.611       7.783       6.855       5.859       4.706       3.338       1.757      1.7707E-02
   9    9.994       9.387       8.722       7.958       7.070       6.041       4.830       3.410       1.789      1.8037E-02
  10    9.994       9.412       8.773       8.035       7.160       6.122       4.888       3.445       1.806      1.8203E-02

 HEAD WILL BE SAVED ON UNIT   51 AT END OF TIME STEP   96, STRESS PERIOD    3

 DRAWDOWN WILL BE SAVED ON UNIT   52 AT END OF TIME STEP   96, STRESS PERIOD    3
1
  VOLUMETRIC BUDGET FOR ENTIRE MODEL AT END OF TIME STEP   96, STRESS PERIOD   3
  ------------------------------------------------------------------------------

     CUMULATIVE VOLUMES      L**3       RATES FOR THIS TIME STEP      L**3/T
     ------------------                 ------------------------

           IN:                                      IN:
           ---                                      ---
             STORAGE =      435229.9062               STORAGE =         943.9248
       CONSTANT HEAD =           0.0000         CONSTANT HEAD =           0.0000
               WELLS =           0.0000                 WELLS =           0.0000
     HEAD DEP BOUNDS =       27195.4395       HEAD DEP BOUNDS =         425.8205

            TOTAL IN =      462425.3438              TOTAL IN =        1369.7454

          OUT:                                     OUT:
          ----                                     ----
             STORAGE =           0.0000               STORAGE =           0.0000
       CONSTANT HEAD =           0.0000         CONSTANT HEAD =           0.0000
               WELLS =       48000.0000                 WELLS =         500.0000
     HEAD DEP BOUNDS =      414425.4688       HEAD DEP BOUNDS =         869.7431

           TOTAL OUT =      462425.4688             TOTAL OUT =        1369.7432

            IN - OUT =          -0.1250              IN - OUT =       2.1973E-03

 PERCENT DISCREPANCY =          -0.00     PERCENT DISCREPANCY =           0.00






         TIME SUMMARY AT END OF TIME STEP   96 IN STRESS PERIOD    3
                    SECONDS     MINUTES      HOURS       DAYS        YEARS
                    -----------------------------------------------------------
   TIME STEP LENGTH  86400.      1440.0      24.000     1.00000     2.73785E-03
 STRESS PERIOD TIME 8.29440E+06 1.38240E+05  2304.0      96.000     0.26283    
         TOTAL TIME 1.70208E+07 2.83680E+05  4728.0      197.00     0.53936    
1
 
 SOLVING FOR HEAD 

 OUTPUT CONTROL FOR STRESS PERIOD    3   TIME STEP   97
    SAVE HEAD FOR ALL LAYERS
    SAVE DRAWDOWN FOR ALL LAYERS
    SAVE BUDGET
    PRINT HEAD FOR ALL LAYERS
    PRINT BUDGET
 UBDSV1 SAVING "         STORAGE" ON UNIT  53 AT TIME STEP 97, STRESS PERIOD   3
 UBDSV2 SAVING "   CONSTANT HEAD" ON UNIT  53 AT TIME STEP 97, STRESS PERIOD   3
 UBDSV1 SAVING "FLOW RIGHT FACE " ON UNIT  53 AT TIME STEP 97, STRESS PERIOD   3
 UBDSV1 SAVING "FLOW FRONT FACE " ON UNIT  53 AT TIME STEP 97, STRESS PERIOD   3
1
              HEAD IN LAYER   1 AT END OF TIME STEP  97 IN STRESS PERIOD    3
  ---------------------------------------------------------------------------

            1           2           3           4           5           6           7           8           9          10
 ........................................................................................................................
   1    9.994       9.351       8.653       7.861       6.961       5.939       4.749       3.355       1.762      1.7754E-02
   2    9.993       9.314       8.571       7.728       6.793       5.800       4.658       3.304       1.739      1.7528E-02
   3    9.993       9.245       8.409       7.435       6.384       5.495       4.477       3.211       1.700      1.7131E-02
   4    9.992       9.163       8.189       6.951       5.488       4.992       4.236       3.102       1.659      1.6706E-02
   5    9.991       9.115       8.028       6.391       3.235       4.411       4.061       3.042       1.639      1.6503E-02
   6    9.992       9.166       8.195       6.958       5.497       5.000       4.242       3.107       1.661      1.6728E-02
   7    9.993       9.253       8.423       7.455       6.405       5.515       4.493       3.221       1.706      1.7186E-02
   8    9.993       9.330       8.602       7.770       6.839       5.843       4.692       3.327       1.751      1.7645E-02
   9    9.994       9.382       8.713       7.946       7.056       6.027       4.817       3.400       1.784      1.7978E-02
  10    9.994       9.407       8.765       8.023       7.147       6.108       4.876       3.435       1.800      1.8147E-02

 HEAD WILL BE SAVED ON UNIT   51 AT END OF TIME STEP   97, STRESS PERIOD    3

 DRAWDOWN WILL BE SAVED ON UNIT   52 AT END OF TIME STEP   97, STRESS PERIOD    3
1
  VOLUMETRIC BUDGET FOR ENTIRE MODEL AT END OF TIME STEP   97, STRESS PERIOD   3
  ------------------------------------------------------------------------------

     CUMULATIVE VOLUMES      L**3       RATES FOR THIS TIME STEP      L**3/T
     ------------------                 ------------------------

           IN:                                      IN:
           ---                                      ---
             STORAGE =      436167.5625               STORAGE =         937.6644
       CONSTANT HEAD =           0.0000         CONSTANT HEAD =           0.0000
               WELLS =           0.0000                 WELLS =           0.0000
     HEAD DEP BOUNDS =       27624.3086       HEAD DEP BOUNDS =         428.8700

            TOTAL IN =      463791.8750              TOTAL IN =        1366.5344

          OUT:                                     OUT:
          ----                                     ----
             STORAGE =           0.0000               STORAGE =           0.0000
       CONSTANT HEAD =           0.0000         CONSTANT HEAD =           0.0000
               WELLS =       48500.0000                 WELLS =         500.0000
     HEAD DEP BOUNDS =      415292.0000       HEAD DEP BOUNDS =         866.5289

           TOTAL OUT =      463792.0000             TOTAL OUT =        1366.5289

            IN - OUT =          -0.1250              IN - OUT =       5.4932E-03

 PERCENT DISCREPANCY =          -0.00     PERCENT DISCREPANCY =           0.00






         TIME SUMMARY AT END OF TIME STEP   97 IN STRESS PERIOD    3
                    SECONDS     MINUTES      HOURS       DAYS        YEARS
                    -----------------------------------------------------------
   TIME STEP LENGTH  86400.      1440.0      24.000     1.00000     2.73785E-03
 STRESS PERIOD TIME 8.38080E+06 1.39680E+05  2328.0      97.000     0.26557    
         TOTAL TIME 1.71072E+07 2.85120E+05  4752.0      198.00     0.54209    
1
 
 SOLVING FOR HEAD 

 OUTPUT CONTROL FOR STRESS PERIOD    3   TIME STEP   98
    SAVE HEAD FOR ALL LAYERS
    SAVE DRAWDOWN FOR ALL LAYERS
    SAVE BUDGET
    PRINT HEAD FOR ALL LAYERS
    PRINT BUDGET
 UBDSV1 SAVING "         STORAGE" ON UNIT  53 AT TIME STEP 98, STRESS PERIOD   3
 UBDSV2 SAVING "   CONSTANT HEAD" ON UNIT  53 AT TIME STEP 98, STRESS PERIOD   3
 UBDSV1 SAVING "FLOW RIGHT FACE " ON UNIT  53 AT TIME STEP 98, STRESS PERIOD   3
 UBDSV1 SAVING "FLOW FRONT FACE " ON UNIT  53 AT TIME STEP 98, STRESS PERIOD   3
1
              HEAD IN LAYER   1 AT END OF TIME STEP  98 IN STRESS PERIOD    3
  ---------------------------------------------------------------------------

            1           2           3           4           5           6           7           8           9          10
 ........................................................................................................................
   1    9.994       9.346       8.643       7.848       6.945       5.923       4.734       3.344       1.756      1.7692E-02
   2    9.993       9.309       8.561       7.715       6.777       5.784       4.643       3.293       1.733      1.7464E-02
   3    9.993       9.240       8.398       7.421       6.367       5.478       4.462       3.199       1.694      1.7064E-02
   4    9.992       9.157       8.179       6.936       5.471       4.974       4.220       3.090       1.652      1.6638E-02
   5    9.991       9.110       8.017       6.376       3.217       4.393       4.045       3.030       1.632      1.6434E-02
   6    9.992       9.160       8.184       6.944       5.479       4.982       4.227       3.095       1.654      1.6660E-02
   7    9.993       9.247       8.413       7.441       6.389       5.499       4.478       3.210       1.700      1.7121E-02
   8    9.993       9.325       8.592       7.757       6.824       5.828       4.678       3.316       1.745      1.7584E-02
   9    9.994       9.378       8.705       7.934       7.042       6.012       4.804       3.389       1.778      1.7920E-02
  10    9.994       9.403       8.757       8.011       7.133       6.094       4.863       3.425       1.795      1.8090E-02

 HEAD WILL BE SAVED ON UNIT   51 AT END OF TIME STEP   98, STRESS PERIOD    3

 DRAWDOWN WILL BE SAVED ON UNIT   52 AT END OF TIME STEP   98, STRESS PERIOD    3
1
  VOLUMETRIC BUDGET FOR ENTIRE MODEL AT END OF TIME STEP   98, STRESS PERIOD   3
  ------------------------------------------------------------------------------

     CUMULATIVE VOLUMES      L**3       RATES FOR THIS TIME STEP      L**3/T
     ------------------                 ------------------------

           IN:                                      IN:
           ---                                      ---
             STORAGE =      437099.0000               STORAGE =         931.4460
       CONSTANT HEAD =           0.0000         CONSTANT HEAD =           0.0000
               WELLS =           0.0000                 WELLS =           0.0000
     HEAD DEP BOUNDS =       28056.2051       HEAD DEP BOUNDS =         431.8961

            TOTAL IN =      465155.2188              TOTAL IN =        1363.3422

          OUT:                                     OUT:
          ----                                     ----
             STORAGE =           0.0000               STORAGE =           0.0000
       CONSTANT HEAD =           0.0000         CONSTANT HEAD =           0.0000
               WELLS =       49000.0000                 WELLS =         500.0000
     HEAD DEP BOUNDS =      416155.3438       HEAD DEP BOUNDS =         863.3346

           TOTAL OUT =      465155.3438             TOTAL OUT =        1363.3346

            IN - OUT =          -0.1250              IN - OUT =       7.5684E-03

 PERCENT DISCREPANCY =          -0.00     PERCENT DISCREPANCY =           0.00






         TIME SUMMARY AT END OF TIME STEP   98 IN STRESS PERIOD    3
                    SECONDS     MINUTES      HOURS       DAYS        YEARS
                    -----------------------------------------------------------
   TIME STEP LENGTH  86400.      1440.0      24.000     1.00000     2.73785E-03
 STRESS PERIOD TIME 8.46720E+06 1.41120E+05  2352.0      98.000     0.26831    
         TOTAL TIME 1.71936E+07 2.86560E+05  4776.0      199.00     0.54483    
1
 
 SOLVING FOR HEAD 

 OUTPUT CONTROL FOR STRESS PERIOD    3   TIME STEP   99
    SAVE HEAD FOR ALL LAYERS
    SAVE DRAWDOWN FOR ALL LAYERS
    SAVE BUDGET
    PRINT HEAD FOR ALL LAYERS
    PRINT BUDGET
 UBDSV1 SAVING "         STORAGE" ON UNIT  53 AT TIME STEP 99, STRESS PERIOD   3
 UBDSV2 SAVING "   CONSTANT HEAD" ON UNIT  53 AT TIME STEP 99, STRESS PERIOD   3
 UBDSV1 SAVING "FLOW RIGHT FACE " ON UNIT  53 AT TIME STEP 99, STRESS PERIOD   3
 UBDSV1 SAVING "FLOW FRONT FACE " ON UNIT  53 AT TIME STEP 99, STRESS PERIOD   3
1
              HEAD IN LAYER   1 AT END OF TIME STEP  99 IN STRESS PERIOD    3
  ---------------------------------------------------------------------------

            1           2           3           4           5           6           7           8           9          10
 ........................................................................................................................
   1    9.994       9.341       8.634       7.835       6.930       5.907       4.720       3.333       1.749      1.7629E-02
   2    9.993       9.304       8.552       7.701       6.761       5.767       4.628       3.282       1.727      1.7400E-02
   3    9.992       9.234       8.388       7.407       6.350       5.461       4.447       3.187       1.688      1.6999E-02
   4    9.992       9.152       8.168       6.921       5.454       4.957       4.205       3.078       1.645      1.6570E-02
   5    9.991       9.104       8.007       6.361       3.198       4.375       4.029       3.018       1.625      1.6366E-02
   6    9.992       9.155       8.174       6.929       5.462       4.965       4.211       3.083       1.648      1.6593E-02
   7    9.993       9.242       8.403       7.427       6.373       5.482       4.463       3.199       1.693      1.7057E-02
   8    9.993       9.321       8.583       7.744       6.810       5.813       4.664       3.306       1.739      1.7523E-02
   9    9.994       9.373       8.696       7.922       7.028       5.998       4.791       3.379       1.772      1.7862E-02
  10    9.994       9.399       8.748       8.000       7.120       6.080       4.850       3.415       1.789      1.8034E-02

 HEAD WILL BE SAVED ON UNIT   51 AT END OF TIME STEP   99, STRESS PERIOD    3

 DRAWDOWN WILL BE SAVED ON UNIT   52 AT END OF TIME STEP   99, STRESS PERIOD    3
1
  VOLUMETRIC BUDGET FOR ENTIRE MODEL AT END OF TIME STEP   99, STRESS PERIOD   3
  ------------------------------------------------------------------------------

     CUMULATIVE VOLUMES      L**3       RATES FOR THIS TIME STEP      L**3/T
     ------------------                 ------------------------

           IN:                                      IN:
           ---                                      ---
             STORAGE =      438024.2500               STORAGE =         925.2623
       CONSTANT HEAD =           0.0000         CONSTANT HEAD =           0.0000
               WELLS =           0.0000                 WELLS =           0.0000
     HEAD DEP BOUNDS =       28491.0977       HEAD DEP BOUNDS =         434.8922

            TOTAL IN =      466515.3438              TOTAL IN =        1360.1544

          OUT:                                     OUT:
          ----                                     ----
             STORAGE =           0.0000               STORAGE =           0.0000
       CONSTANT HEAD =           0.0000         CONSTANT HEAD =           0.0000
               WELLS =       49500.0000                 WELLS =         500.0000
     HEAD DEP BOUNDS =      417015.5000       HEAD DEP BOUNDS =         860.1622

           TOTAL OUT =      466515.5000             TOTAL OUT =        1360.1622

            IN - OUT =          -0.1562              IN - OUT =      -7.8125E-03

 PERCENT DISCREPANCY =          -0.00     PERCENT DISCREPANCY =          -0.00






         TIME SUMMARY AT END OF TIME STEP   99 IN STRESS PERIOD    3
                    SECONDS     MINUTES      HOURS       DAYS        YEARS
                    -----------------------------------------------------------
   TIME STEP LENGTH  86400.      1440.0      24.000     1.00000     2.73785E-03
 STRESS PERIOD TIME 8.55360E+06 1.42560E+05  2376.0      99.000     0.27105    
         TOTAL TIME 1.72800E+07 2.88000E+05  4800.0      200.00     0.54757    
1
 
 SOLVING FOR HEAD 

 OUTPUT CONTROL FOR STRESS PERIOD    3   TIME STEP  100
    SAVE HEAD FOR ALL LAYERS
    SAVE DRAWDOWN FOR ALL LAYERS
    SAVE BUDGET
    PRINT HEAD FOR ALL LAYERS
    PRINT BUDGET
 UBDSV1 SAVING "         STORAGE" ON UNIT  53 AT TIME STEP100, STRESS PERIOD   3
 UBDSV2 SAVING "   CONSTANT HEAD" ON UNIT  53 AT TIME STEP100, STRESS PERIOD   3
 UBDSV1 SAVING "FLOW RIGHT FACE " ON UNIT  53 AT TIME STEP100, STRESS PERIOD   3
 UBDSV1 SAVING "FLOW FRONT FACE " ON UNIT  53 AT TIME STEP100, STRESS PERIOD   3
1
              HEAD IN LAYER   1 AT END OF TIME STEP 100 IN STRESS PERIOD    3
  ---------------------------------------------------------------------------

            1           2           3           4           5           6           7           8           9          10
 ........................................................................................................................
   1    9.993       9.336       8.624       7.822       6.915       5.891       4.706       3.322       1.743      1.7567E-02
   2    9.993       9.299       8.542       7.688       6.746       5.751       4.614       3.270       1.721      1.7337E-02
   3    9.992       9.229       8.378       7.393       6.334       5.445       4.431       3.176       1.681      1.6933E-02
   4    9.992       9.146       8.158       6.907       5.436       4.939       4.189       3.066       1.639      1.6503E-02
   5    9.991       9.098       7.996       6.346       3.180       4.357       4.013       3.006       1.619      1.6298E-02
   6    9.992       9.149       8.163       6.915       5.445       4.948       4.196       3.071       1.641      1.6526E-02
   7    9.993       9.237       8.393       7.413       6.357       5.466       4.449       3.187       1.687      1.6993E-02
   8    9.993       9.316       8.574       7.732       6.795       5.797       4.650       3.295       1.733      1.7462E-02
   9    9.994       9.369       8.687       7.910       7.014       5.984       4.778       3.369       1.767      1.7805E-02
  10    9.994       9.394       8.740       7.988       7.106       6.066       4.837       3.406       1.784      1.7978E-02

 HEAD WILL BE SAVED ON UNIT   51 AT END OF TIME STEP  100, STRESS PERIOD    3

 DRAWDOWN WILL BE SAVED ON UNIT   52 AT END OF TIME STEP  100, STRESS PERIOD    3
1
  VOLUMETRIC BUDGET FOR ENTIRE MODEL AT END OF TIME STEP  100, STRESS PERIOD   3
  ------------------------------------------------------------------------------

     CUMULATIVE VOLUMES      L**3       RATES FOR THIS TIME STEP      L**3/T
     ------------------                 ------------------------

           IN:                                      IN:
           ---                                      ---
             STORAGE =      438943.3750               STORAGE =         919.1294
       CONSTANT HEAD =           0.0000         CONSTANT HEAD =           0.0000
               WELLS =           0.0000                 WELLS =           0.0000
     HEAD DEP BOUNDS =       28928.9883       HEAD DEP BOUNDS =         437.8913

            TOTAL IN =      467872.3750              TOTAL IN =        1357.0208

          OUT:                                     OUT:
          ----                                     ----
             STORAGE =           0.0000               STORAGE =           0.0000
       CONSTANT HEAD =           0.0000         CONSTANT HEAD =           0.0000
               WELLS =       50000.0000                 WELLS =         500.0000
     HEAD DEP BOUNDS =      417872.5000       HEAD DEP BOUNDS =         857.0134

           TOTAL OUT =      467872.5000             TOTAL OUT =        1357.0134

            IN - OUT =          -0.1250              IN - OUT =       7.3242E-03

 PERCENT DISCREPANCY =          -0.00     PERCENT DISCREPANCY =           0.00






         TIME SUMMARY AT END OF TIME STEP  100 IN STRESS PERIOD    3
                    SECONDS     MINUTES      HOURS       DAYS        YEARS
                    -----------------------------------------------------------
   TIME STEP LENGTH  86400.      1440.0      24.000     1.00000     2.73785E-03
 STRESS PERIOD TIME 8.64000E+06 1.44000E+05  2400.0     100.000     0.27379    
         TOTAL TIME 1.73664E+07 2.89440E+05  4824.0      201.00     0.55031    
1

 Run end date and time (yyyy/mm/dd hh:mm:ss): 2023/05/18 11:41:49
 Elapsed run time:  0.424 Seconds

